19
Iteration:  2345charge 0 multiplicity 1
 O         0.635110        -0.262626         0.136251
 C        -0.245151         0.571256         0.965153
 C        -1.601240        -0.053507         1.445000
 C        -1.779192         1.436311         1.971044
 C        -3.063196         1.919332         1.333520
 O        -2.428397         2.044987         0.040267
 C        -1.072515         1.874784         0.665250
 C        -0.786696         1.764734         3.083982
 C         0.362531         1.009100         2.390132
 H        -0.039356        -0.514203        -0.449830
 H        -2.354431        -0.166463         0.693134
 H        -1.511959        -0.881520         2.108082
 H        -3.923361         1.264766         1.162951
 H        -3.325676         3.029235         1.527817
 H        -0.461760         2.933312         0.398076
 H        -0.485384         2.821359         3.035366
 H        -1.024341         1.445141         4.096472
 H         1.169671         1.602660         2.361576
 H         0.713095         0.073995         2.910510
