19
Iteration:  1993
 O         0.659671        -0.054142         0.076878
 C        -0.318283         0.476930         0.984682
 C        -1.593577        -0.136782         1.591918
 C        -1.845169         1.446660         1.968166
 C        -3.061708         2.087434         1.300712
 O        -2.373205         1.888043        -0.039952
 C        -1.094767         1.756743         0.686693
 C        -0.836730         1.827168         3.099281
 C         0.335019         0.967739         2.359621
 H         0.325729         0.032407        -0.794986
 H        -2.183308        -0.426398         0.740233
 H        -1.498874        -0.845149         2.357448
 H        -3.931751         1.604160         1.439078
 H        -2.966338         3.045674         1.764906
 H        -0.467018         2.667439         0.583868
 H        -0.384582         2.853297         3.091441
 H        -0.925787         1.508207         4.205405
 H         1.417443         1.441006         2.135619
 H         0.842821         0.054879         2.904545
