19
Iteration:  3908
 O         0.571127        -0.193455         0.171383
 C        -0.263974         0.504783         1.003306
 C        -1.618593        -0.049112         1.387067
 C        -1.851646         1.380939         1.956640
 C        -2.954311         2.188708         1.341160
 O        -2.330723         2.065133        -0.047379
 C        -1.053992         1.912736         0.703897
 C        -0.899882         1.598725         3.069857
 C         0.305907         0.797170         2.391138
 H         1.419059         0.309557         0.047896
 H        -2.082423        -0.285272         0.443601
 H        -1.667343        -0.967957         1.990165
 H        -3.955850         1.897916         1.459173
 H        -2.888309         3.325853         1.605279
 H        -0.632470         3.058811         0.713852
 H        -0.656055         2.672701         3.276901
 H        -1.212115         1.208797         4.060705
 H         1.137248         1.457829         2.274722
 H         0.559679        -0.246744         2.817544
