19
Iteration:  1732
 O         0.674627        -0.146674         0.157505
 C        -0.318554         0.591192         0.979888
 C        -1.616406        -0.035993         1.551324
 C        -1.767791         1.559717         1.992759
 C        -3.051566         1.962103         1.256801
 O        -2.442088         1.879284        -0.064023
 C        -1.125064         1.888078         0.668639
 C        -0.738077         1.735453         3.111991
 C         0.384197         0.911620         2.388589
 H         0.110839        -0.375464        -0.677769
 H        -2.356343        -0.248038         0.789160
 H        -1.427205        -0.820830         2.351072
 H        -4.116697         1.460681         1.276041
 H        -3.242382         2.940111         1.607212
 H        -0.569708         2.831986         0.416907
 H        -0.551608         2.797029         3.070336
 H        -1.015191         1.376612         4.119872
 H         1.385878         1.414110         2.103443
 H         0.698575        -0.052519         2.963069
