19
Iteration:  2219
 O         0.719670        -0.187959         0.201882
 C        -0.312436         0.508541         0.969068
 C        -1.591352        -0.098012         1.586593
 C        -1.903643         1.406364         1.922293
 C        -3.183529         1.996824         1.272802
 O        -2.357151         2.127633         0.042401
 C        -1.087939         1.867201         0.723500
 C        -0.746088         1.713471         3.007947
 C         0.436924         0.968077         2.254642
 H         0.138264        -0.683010        -0.415688
 H        -2.494441        -0.500341         1.012459
 H        -1.400600        -0.837601         2.446539
 H        -3.965143         1.116729         1.195304
 H        -3.552558         2.966120         1.704370
 H        -0.398864         2.822162         0.579315
 H        -0.767429         2.823063         2.960468
 H        -0.897774         1.447660         4.091090
 H         1.254707         1.763561         1.852553
 H         0.781408         0.094007         2.739081
