19
Iteration:  1923
 O         0.579466        -0.230231         0.106195
 C        -0.243315         0.584719         0.967938
 C        -1.546220        -0.027148         1.508162
 C        -1.834353         1.462248         1.959545
 C        -3.031089         2.051930         1.336961
 O        -2.403662         1.874566         0.015083
 C        -1.007092         1.842779         0.645519
 C        -0.867336         1.599892         3.132120
 C         0.389333         1.191216         2.315732
 H         0.011260        -0.844816        -0.354893
 H        -2.158274        -0.342722         0.635937
 H        -1.629177        -0.632536         2.455450
 H        -4.058271         1.636048         1.359746
 H        -3.032745         3.073272         1.466584
 H        -0.553611         2.781012         0.447402
 H        -0.902362         2.590865         3.599903
 H        -1.183351         0.878714         3.891801
 H         1.040557         2.035339         2.282430
 H         1.172278         0.435961         2.794894
