19
Iteration:  1032
 O         0.578270        -0.187798         0.095059
 C        -0.283580         0.551879         0.935977
 C        -1.559937        -0.047802         1.625093
 C        -1.780178         1.450321         1.984054
 C        -3.114943         1.941567         1.283436
 O        -2.471267         1.884852        -0.058877
 C        -1.107621         1.874685         0.662181
 C        -0.763812         1.781813         3.110637
 C         0.474896         1.145339         2.294246
 H         1.227471        -0.653176         0.697934
 H        -2.484114        -0.342042         1.020594
 H        -1.518541        -0.753878         2.490535
 H        -3.947510         1.198272         1.284553
 H        -3.619212         2.849024         1.691271
 H        -0.529710         2.710705         0.485014
 H        -0.583811         2.859377         3.323240
 H        -0.883613         1.292111         4.005359
 H         1.324681         1.602537         1.828508
 H         0.754400         0.104725         2.749720
