19
Iteration:  2703
 O         0.567834        -0.127654         0.118429
 C        -0.321122         0.618351         1.027053
 C        -1.603453        -0.144741         1.491398
 C        -1.848707         1.339421         1.988233
 C        -3.034019         2.001200         1.262341
 O        -2.306101         2.035572        -0.000280
 C        -1.050774         1.852862         0.648028
 C        -0.760551         1.800838         3.096577
 C         0.361267         0.955729         2.384057
 H        -0.126642        -0.645190        -0.391109
 H        -2.341612        -0.530108         0.756703
 H        -1.431976        -0.980315         2.152494
 H        -3.991343         1.527129         1.108786
 H        -3.438305         3.048261         1.638242
 H        -0.328965         2.757808         0.532938
 H        -0.449811         2.843225         3.258410
 H        -1.047407         1.349143         4.084256
 H         1.362850         1.382809         2.352703
 H         0.533120         0.034446         2.757628
