19
Iteration:  3777charge 0 multiplicity 1
 O         0.631943        -0.184474         0.157039
 C        -0.345557         0.509522         0.936360
 C        -1.709722        -0.007199         1.434872
 C        -1.772374         1.477920         1.998568
 C        -3.012631         2.152836         1.293415
 O        -2.378865         2.035870        -0.043672
 C        -1.047300         1.945715         0.665297
 C        -0.820115         1.525355         3.137083
 C         0.354365         0.837045         2.359123
 H         1.492984        -0.189244         0.691148
 H        -2.480872        -0.232037         0.672458
 H        -1.780857        -0.672050         2.307172
 H        -3.878418         1.558004         1.212717
 H        -3.243055         3.210088         1.446561
 H        -0.474491         2.771435         0.553495
 H        -0.522178         2.545664         3.359457
 H        -1.200180         1.021637         4.062367
 H         1.160319         1.524998         1.989237
 H         0.947672        -0.063018         2.901870
