19
Iteration:  4089
 O         0.435474        -0.263420         0.064409
 C        -0.228386         0.536411         1.027550
 C        -1.628738         0.029240         1.351500
 C        -1.805889         1.516494         1.928747
 C        -3.038468         2.109364         1.222748
 O        -2.258284         2.068644         0.022475
 C        -0.935901         1.939246         0.662546
 C        -0.969794         1.451194         3.252392
 C         0.406258         0.972883         2.408191
 H         1.327842        -0.472788         0.398087
 H        -2.187722        -0.057967         0.427124
 H        -1.828197        -0.779941         2.091763
 H        -4.015429         1.498386         1.432325
 H        -3.387899         3.173503         1.461367
 H        -0.295283         2.864108         0.404278
 H        -0.862373         2.333276         3.821585
 H        -1.353904         0.628810         3.886934
 H         1.211956         1.592976         2.499163
 H         0.800327         0.073900         2.849150
