19
Iteration:   617
 O         0.593256        -0.348630         0.053709
 C        -0.220158         0.592734         0.963000
 C        -1.489818        -0.039868         1.493237
 C        -1.804532         1.462366         1.955851
 C        -3.041042         2.119610         1.308949
 O        -2.451890         1.803835         0.035093
 C        -1.082949         1.910667         0.609421
 C        -0.909456         1.663579         3.166904
 C         0.346087         1.161137         2.402981
 H         1.228692         0.174382        -0.546276
 H        -2.141591        -0.228122         0.633523
 H        -1.325378        -0.828000         2.202224
 H        -4.058985         1.766516         1.618888
 H        -3.080427         3.172816         1.680982
 H        -0.616273         2.827009         0.500657
 H        -0.845441         2.718416         3.545644
 H        -1.200027         1.045005         4.052298
 H         1.294847         1.832390         2.278736
 H         0.733852         0.171588         2.718572
