19
Iteration:  4621charge 0 multiplicity 1
 O         0.600186        -0.310240         0.120948
 C        -0.290486         0.578389         0.900910
 C        -1.658082         0.041882         1.403812
 C        -1.847595         1.507937         1.961891
 C        -3.039504         2.095895         1.262338
 O        -2.225749         2.201516         0.034508
 C        -0.973304         1.961963         0.756856
 C        -0.956498         1.455524         3.166265
 C         0.335790         0.878802         2.305716
 H         0.511308        -1.195131         0.433790
 H        -2.292832        -0.281398         0.593029
 H        -1.557626        -0.720939         2.142524
 H        -3.826665         1.262475         1.177971
 H        -3.561652         3.027445         1.616736
 H        -0.243526         2.732129         0.681241
 H        -0.492204         2.438061         3.507875
 H        -1.422641         0.934538         4.063384
 H         1.090077         1.703302         2.318157
 H         0.800057        -0.001776         2.791214
