19
Iteration:  1707
 O         0.535816        -0.070269         0.065164
 C        -0.305563         0.552041         0.987864
 C        -1.606987        -0.012565         1.692337
 C        -1.813527         1.483700         1.954994
 C        -3.083308         2.018185         1.242336
 O        -2.256597         1.881597        -0.014141
 C        -1.016679         1.750376         0.700358
 C        -0.837080         1.681881         3.076548
 C         0.387403         1.034056         2.342285
 H        -0.016899        -0.609981        -0.591295
 H        -2.192706        -0.336379         0.838689
 H        -1.502886        -0.664937         2.504855
 H        -4.102350         1.418796         1.214009
 H        -3.507899         3.020572         1.525051
 H        -0.388985         2.713364         0.556453
 H        -0.774427         2.777207         3.232405
 H        -0.852897         1.028700         4.030389
 H         1.212217         1.651666         1.883725
 H         0.808231         0.320296         2.942184
