19
Iteration:  4265
 O         0.549295        -0.038707        -0.008012
 C        -0.273236         0.482200         0.969514
 C        -1.690143        -0.117407         1.501907
 C        -1.883096         1.385802         1.961003
 C        -3.031354         2.245720         1.214759
 O        -2.204647         2.119614        -0.012598
 C        -0.957245         1.816656         0.782452
 C        -0.899191         1.590439         3.092180
 C         0.302452         0.805239         2.456411
 H         0.935842        -0.907482         0.246992
 H        -2.385690        -0.506506         0.719198
 H        -1.677953        -0.761414         2.401285
 H        -3.944300         1.789142         1.091879
 H        -3.112265         3.268413         1.607517
 H        -0.307272         2.789678         0.825316
 H        -0.532373         2.585742         3.190912
 H        -1.054293         1.128265         4.104253
 H         1.148220         1.402400         2.475257
 H         0.432647        -0.184858         2.831297
