19
Iteration:   961
 O         0.458728        -0.129311        -0.018097
 C        -0.219243         0.611279         0.930437
 C        -1.489349        -0.083701         1.608930
 C        -1.846166         1.439222         1.996232
 C        -3.084905         2.084232         1.237649
 O        -2.411859         1.719834         0.036634
 C        -1.045415         1.812749         0.682715
 C        -0.846227         1.767178         3.127574
 C         0.464195         1.128098         2.344223
 H         0.703453        -1.032422         0.296109
 H        -2.115162        -0.553670         0.870537
 H        -1.256357        -0.825999         2.429815
 H        -4.139857         1.741399         1.340451
 H        -3.189770         3.198903         1.349706
 H        -0.331464         2.720599         0.554398
 H        -0.822359         2.839480         3.346103
 H        -0.980801         1.277818         4.199542
 H         1.100410         2.033307         2.123800
 H         0.915404         0.429295         2.963404
