19
Iteration:  2469
 O         0.574528        -0.111536         0.158317
 C        -0.305221         0.523529         0.978526
 C        -1.659237         0.015084         1.505150
 C        -1.804189         1.521304         1.928723
 C        -3.091969         1.855042         1.264708
 O        -2.336632         2.039500         0.014491
 C        -1.014155         1.854539         0.739028
 C        -0.788349         1.731883         3.056122
 C         0.452545         0.884634         2.349572
 H         0.118847        -0.536756        -0.544262
 H        -2.449495        -0.293055         0.759140
 H        -1.649367        -0.670006         2.417508
 H        -3.906742         1.235713         1.390167
 H        -3.587565         2.817636         1.612436
 H        -0.441730         2.866980         0.428606
 H        -0.443545         2.794196         3.093943
 H        -1.116020         1.281146         4.038477
 H         1.392272         1.428731         2.335419
 H         0.644141        -0.006974         2.755945
