19
Iteration:   889
 O         0.534158        -0.221257         0.117536
 C        -0.273481         0.610145         1.005733
 C        -1.493095        -0.046110         1.572292
 C        -1.865515         1.351482         1.938532
 C        -3.026517         2.007339         1.365687
 O        -2.487386         1.895084         0.003014
 C        -1.073228         1.838659         0.629255
 C        -0.830493         1.740524         2.999187
 C         0.468562         1.094202         2.297947
 H         1.457874        -0.262845         0.421942
 H        -2.176266        -0.453925         0.810017
 H        -1.374220        -0.824513         2.361563
 H        -4.041945         1.680583         1.522754
 H        -3.062129         3.037255         1.714623
 H        -0.729865         2.842910         0.594579
 H        -0.713635         2.832380         2.861502
 H        -1.123101         1.653974         3.986891
 H         1.179008         1.867581         2.194672
 H         0.786972         0.073135         2.805575
