19
Iteration:  2388charge 0 multiplicity 1
 O         0.719397        -0.111518         0.188480
 C        -0.346940         0.487313         0.911927
 C        -1.654561        -0.053165         1.603682
 C        -1.842732         1.409871         2.024743
 C        -2.988407         2.251406         1.255201
 O        -2.422055         1.893811         0.005944
 C        -1.100483         1.804983         0.582480
 C        -0.821043         1.533946         3.171045
 C         0.399243         1.079622         2.249589
 H         0.434449        -0.526875        -0.599561
 H        -2.393568        -0.275094         0.891024
 H        -1.543799        -0.827689         2.287542
 H        -3.856954         1.637440         1.380434
 H        -2.970489         3.303984         1.468302
 H        -0.678226         2.853109         0.441957
 H        -0.701975         2.509859         3.628998
 H        -1.004206         0.916837         4.021354
 H         0.986674         1.887325         2.019941
 H         1.065332         0.226200         2.680248
