19
Iteration:  1664charge 0 multiplicity 1
 O         0.564508        -0.238246         0.180357
 C        -0.269558         0.512219         1.017473
 C        -1.540137        -0.050341         1.541076
 C        -1.854449         1.434901         1.969482
 C        -3.044905         2.113019         1.304748
 O        -2.361602         1.880365        -0.009801
 C        -1.064101         1.834282         0.673703
 C        -0.860437         1.656041         3.077708
 C         0.406085         1.147342         2.298554
 H         0.208285        -0.064105        -0.709755
 H        -2.252373        -0.364339         0.762659
 H        -1.418729        -0.756521         2.348253
 H        -4.133772         1.637827         1.237287
 H        -3.015236         3.167442         1.412568
 H        -0.537874         2.796567         0.316707
 H        -0.613054         2.702826         3.380395
 H        -1.093669         0.906342         3.925572
 H         1.231039         1.987785         2.151680
 H         0.943310         0.325660         2.771887
