19
Iteration:  3157charge 0 multiplicity 1
 O         0.605854        -0.079101         0.134128
 C        -0.305161         0.504130         0.994644
 C        -1.685722         0.023098         1.545249
 C        -1.810011         1.495252         2.009174
 C        -3.085594         2.124598         1.224553
 O        -2.345416         1.853052        -0.008815
 C        -1.046779         1.839386         0.682474
 C        -0.778204         1.591978         3.126492
 C         0.446264         0.976845         2.334397
 H         0.132608        -0.607436        -0.579976
 H        -2.313302        -0.264460         0.667998
 H        -1.634005        -0.812362         2.237231
 H        -3.963986         1.612221         1.356283
 H        -3.226915         3.199928         1.250827
 H        -0.529153         2.774502         0.558796
 H        -0.560166         2.658181         3.533641
 H        -1.058134         0.951193         4.041542
 H         1.036797         1.815978         1.996300
 H         0.970239         0.017522         2.844771
