19
Iteration:  3161
 O         0.611823        -0.082381         0.157563
 C        -0.325058         0.524407         1.033778
 C        -1.689415         0.021046         1.512719
 C        -1.792262         1.505098         2.011852
 C        -3.072813         2.119058         1.231145
 O        -2.352968         1.881659        -0.000257
 C        -1.057953         1.810205         0.631317
 C        -0.741690         1.588804         3.161514
 C         0.406360         0.954383         2.306262
 H         0.235380        -0.512430        -0.621150
 H        -2.234218        -0.335061         0.672265
 H        -1.579760        -0.799855         2.231399
 H        -4.039878         1.453087         1.257595
 H        -3.322470         3.173845         1.367610
 H        -0.419955         2.687236         0.563786
 H        -0.559107         2.624434         3.456172
 H        -1.058655         1.086218         4.042403
 H         1.050228         1.802777         1.912794
 H         0.898379         0.147705         2.855069
