19
Iteration:  2363
 O         0.630912        -0.206328         0.232363
 C        -0.271893         0.520106         0.984701
 C        -1.521437        -0.003844         1.453086
 C        -1.818068         1.428804         1.881230
 C        -3.090077         2.122057         1.413699
 O        -2.456246         1.946819        -0.007626
 C        -1.082788         1.909669         0.665918
 C        -0.824980         1.672773         3.024585
 C         0.438427         0.985680         2.326809
 H         0.228089        -0.710922        -0.443194
 H        -2.005262        -0.364066         0.535648
 H        -1.548279        -0.769333         2.247439
 H        -3.938980         1.387000         1.471907
 H        -3.175741         3.139453         1.671751
 H        -0.695958         2.841796         0.548292
 H        -0.750691         2.688511         3.408546
 H        -1.147213         1.159259         3.939215
 H         1.406584         1.581331         2.117843
 H         0.718153        -0.029440         2.821221
