19
Iteration:  3640
 O         0.568923        -0.204825         0.086023
 C        -0.282307         0.495641         0.963861
 C        -1.623006        -0.108057         1.466225
 C        -1.860125         1.420041         1.936512
 C        -2.984657         2.182795         1.397553
 O        -2.371378         2.065546        -0.019107
 C        -1.016368         1.825998         0.663768
 C        -0.913508         1.590019         3.046238
 C         0.374621         0.998371         2.376128
 H         1.476261        -0.167835         0.371634
 H        -2.269363        -0.409336         0.635376
 H        -1.568871        -0.838402         2.295101
 H        -3.991226         1.692853         1.399426
 H        -3.020296         3.254647         1.562602
 H        -0.508452         2.695429         0.649501
 H        -0.768697         2.656650         3.462999
 H        -1.107069         0.913890         3.869146
 H         1.283320         1.734366         2.240553
 H         0.805039         0.228770         3.142783
