19
Iteration:  1002charge 0 multiplicity 1
 O         0.590948         0.043069         0.064455
 C        -0.309671         0.497687         1.031363
 C        -1.594131        -0.089074         1.679120
 C        -1.788177         1.474010         1.955954
 C        -3.078087         2.059028         1.279296
 O        -2.431974         1.763628         0.017388
 C        -1.052175         1.778691         0.656134
 C        -0.788665         1.768130         2.997344
 C         0.419052         1.028422         2.286779
 H         0.804716        -0.849264         0.252372
 H        -2.412888        -0.522882         1.126016
 H        -1.561824        -0.621789         2.601406
 H        -4.002288         1.398794         1.339853
 H        -3.489133         3.042687         1.500972
 H        -0.494551         2.701487         0.269735
 H        -0.604717         2.894068         3.049012
 H        -0.988805         1.468618         4.051354
 H         1.394299         1.598176         1.987478
 H         0.945670         0.173074         2.788556
