19
Iteration:   615charge 0 multiplicity 1
 O         0.581041        -0.339954         0.057031
 C        -0.222422         0.592452         0.948572
 C        -1.458765        -0.028508         1.493237
 C        -1.796489         1.452348         1.965840
 C        -3.027128         2.131844         1.306671
 O        -2.458381         1.789284         0.018433
 C        -1.089721         1.900283         0.628941
 C        -0.906299         1.671603         3.161591
 C         0.332956         1.167581         2.410075
 H         1.174733         0.098094        -0.576144
 H        -2.084556        -0.234861         0.572832
 H        -1.316150        -0.855698         2.225766
 H        -4.081955         1.790214         1.603512
 H        -3.063739         3.215821         1.707763
 H        -0.602335         2.917308         0.559064
 H        -0.858051         2.677719         3.568594
 H        -1.168046         1.049528         4.050268
 H         1.189511         1.808827         2.288923
 H         0.691684         0.071241         2.722592
