19
Iteration:  3540
 O         0.654102        -0.061543         0.055297
 C        -0.288175         0.508724         1.029699
 C        -1.660294        -0.000520         1.503846
 C        -1.883322         1.391465         1.987839
 C        -3.017235         2.097984         1.280733
 O        -2.286815         1.923354        -0.012645
 C        -1.048332         1.901704         0.782010
 C        -0.850222         1.691072         3.069604
 C         0.309063         0.867996         2.354518
 H         0.361070        -0.865526        -0.408282
 H        -2.347916        -0.244190         0.655746
 H        -1.521639        -0.823082         2.228937
 H        -4.034004         1.662636         1.295597
 H        -3.088276         3.126311         1.526516
 H        -0.539848         2.872308         0.760140
 H        -0.636246         2.785343         3.145849
 H        -0.925515         1.263865         4.060915
 H         1.309686         1.444266         2.030433
 H         0.645803        -0.117090         2.836129
