19
Iteration:  4718
 O         0.513793        -0.211139         0.002935
 C        -0.252826         0.469251         1.075237
 C        -1.685707         0.098788         1.440695
 C        -1.805151         1.575212         1.919239
 C        -3.024403         2.075866         1.235575
 O        -2.259971         2.093361        -0.026050
 C        -0.927786         1.893127         0.750743
 C        -0.914885         1.492970         3.132386
 C         0.360826         0.816924         2.538590
 H         0.576277         0.297546        -0.786280
 H        -2.301084        -0.272204         0.602377
 H        -1.793646        -0.639839         2.314945
 H        -3.844463         1.369149         1.153027
 H        -3.433185         3.026669         1.448265
 H        -0.252895         2.775114         0.772011
 H        -0.774877         2.528323         3.505811
 H        -1.420638         0.791143         3.779252
 H         1.267114         1.479353         2.374017
 H         0.754372        -0.142013         3.008965
