19
Iteration:  3294charge 0 multiplicity 1
 O         0.558470        -0.080048         0.113890
 C        -0.259669         0.570041         1.043488
 C        -1.556589        -0.044132         1.471455
 C        -1.817447         1.389401         1.979879
 C        -3.015714         2.138804         1.350960
 O        -2.333767         1.851461        -0.026220
 C        -1.075048         1.873126         0.664204
 C        -0.861185         1.715671         3.031607
 C         0.366424         0.903856         2.392383
 H         0.069448        -0.568301        -0.519242
 H        -2.371167        -0.241259         0.712562
 H        -1.388658        -0.809322         2.254726
 H        -4.034935         1.572308         1.236198
 H        -3.078195         3.178976         1.569696
 H        -0.552051         2.783828         0.621934
 H        -0.593603         2.788410         3.182107
 H        -1.181921         1.309392         4.008485
 H         1.354360         1.598962         2.378116
 H         0.650064        -0.125929         2.857859
