19
Iteration:  3319
 O         0.687923        -0.211916         0.111505
 C        -0.304696         0.458690         0.993674
 C        -1.646721        -0.125626         1.502600
 C        -1.861054         1.350158         1.992522
 C        -3.070461         2.055146         1.284914
 O        -2.379480         2.071361         0.003315
 C        -0.995855         1.837215         0.708496
 C        -0.815099         1.779608         3.097737
 C         0.338142         1.037743         2.343733
 H         0.442522        -0.199990        -0.839596
 H        -2.448333        -0.302613         0.744895
 H        -1.561006        -0.918925         2.295149
 H        -3.982337         1.337487         1.123756
 H        -3.332393         3.071219         1.785952
 H        -0.329885         2.783142         0.691897
 H        -0.650919         2.793946         3.180070
 H        -0.863962         1.463712         4.160881
 H         1.184250         1.685099         2.016436
 H         0.712885         0.209691         2.834792
