19
Iteration:  1961charge 0 multiplicity 1
 O         0.588961        -0.155541         0.194164
 C        -0.284875         0.572182         0.990816
 C        -1.603076        -0.010697         1.618039
 C        -1.841522         1.466251         1.939175
 C        -3.104565         1.906694         1.261141
 O        -2.338277         1.982366        -0.020799
 C        -1.073043         1.884632         0.715415
 C        -0.823363         1.687317         3.056452
 C         0.447201         1.008350         2.271030
 H         0.117652        -0.488015        -0.651839
 H        -2.142841        -0.411847         0.773294
 H        -1.595181        -0.681701         2.437845
 H        -3.932174         1.220082         1.224490
 H        -3.535265         2.898881         1.652468
 H        -0.399548         2.805746         0.736373
 H        -0.446441         2.713762         3.193173
 H        -0.815130         1.095987         4.011440
 H         1.235442         1.758487         1.866947
 H         0.737212         0.077868         2.674012
