19
Iteration:  1167charge 0 multiplicity 1
 O         0.482302        -0.142417         0.065678
 C        -0.283927         0.542273         0.972525
 C        -1.560495        -0.057681         1.607400
 C        -1.801477         1.408002         1.962059
 C        -3.074500         1.932633         1.297075
 O        -2.383480         1.924778        -0.013789
 C        -1.029177         1.867075         0.643363
 C        -0.819849         1.725704         3.036079
 C         0.392746         1.114323         2.387181
 H         1.228163        -0.737054         0.436058
 H        -2.291287        -0.470906         0.964081
 H        -1.400889        -0.690407         2.481277
 H        -4.112747         1.456401         1.396512
 H        -3.321013         3.015148         1.347018
 H        -0.395956         2.705444         0.583028
 H        -0.664193         2.759371         3.194332
 H        -0.947950         1.244992         4.009295
 H         1.224577         1.853893         2.005006
 H         1.045755         0.348441         2.790933
