19
Iteration:  2034
 O         0.619526        -0.110853         0.149949
 C        -0.282980         0.533303         0.989547
 C        -1.576056        -0.007852         1.545082
 C        -1.789748         1.491146         2.012907
 C        -3.041554         2.137223         1.290876
 O        -2.400888         1.794585        -0.064440
 C        -1.089439         1.855727         0.641991
 C        -0.792273         1.581479         3.218091
 C         0.384092         1.052994         2.277102
 H         0.052200        -0.445313        -0.568918
 H        -2.300544        -0.314987         0.790885
 H        -1.477573        -0.733425         2.388721
 H        -4.123281         1.708882         1.230116
 H        -3.243369         3.245628         1.263335
 H        -0.607925         2.800833         0.517849
 H        -0.698556         2.659947         3.454255
 H        -1.124248         0.905410         4.022948
 H         1.159542         1.821135         2.015919
 H         0.960727         0.071846         2.725690
