19
Iteration:  4957
 O         0.703762        -0.207230         0.118515
 C        -0.260938         0.475603         1.012465
 C        -1.675579        -0.037741         1.446337
 C        -1.921200         1.393117         1.952941
 C        -2.992326         2.279860         1.227788
 O        -2.294366         2.137576        -0.041971
 C        -1.069581         1.874691         0.773166
 C        -0.887305         1.480368         3.124045
 C         0.346146         0.868270         2.408083
 H         0.178236        -0.325333        -0.670694
 H        -2.341783        -0.542442         0.793196
 H        -1.665274        -0.855027         2.198435
 H        -4.004627         2.008615         1.175384
 H        -2.881798         3.330516         1.596167
 H        -0.515866         2.722555         0.640147
 H        -0.783193         2.546939         3.409678
 H        -1.155366         1.060575         4.060302
 H         1.207004         1.562652         2.231790
 H         0.782693        -0.011437         2.915365
