19
Iteration:  1089
 O         0.603507        -0.157858         0.144955
 C        -0.307049         0.511850         0.970639
 C        -1.537420        -0.097671         1.646521
 C        -1.832252         1.445108         1.971651
 C        -3.100814         2.107381         1.266479
 O        -2.409556         1.819583        -0.002638
 C        -1.103376         1.792581         0.643470
 C        -0.773591         1.697400         3.077456
 C         0.400478         1.136576         2.320788
 H         0.638895         0.315033        -0.725468
 H        -2.319612        -0.496819         1.008587
 H        -1.522702        -0.615722         2.614550
 H        -4.021276         1.456104         1.216451
 H        -3.137359         3.181626         1.469837
 H        -0.496748         2.613727         0.355274
 H        -0.563540         2.724274         3.416906
 H        -0.999293         1.129456         3.948415
 H         1.042079         1.969326         1.842454
 H         1.155643         0.397573         2.728561
