19
Iteration:  2907charge 0 multiplicity 1
 O         0.689615        -0.156079         0.132926
 C        -0.316763         0.473030         0.934671
 C        -1.648043        -0.074577         1.551942
 C        -1.856770         1.398108         2.024557
 C        -3.067531         2.194964         1.255648
 O        -2.383762         1.973956        -0.025625
 C        -1.073536         1.763899         0.640414
 C        -0.735217         1.573387         3.168505
 C         0.348449         1.065144         2.338642
 H         0.633290        -0.047960        -0.801745
 H        -2.536821        -0.464874         0.990479
 H        -1.524206        -0.724388         2.422313
 H        -4.220280         1.795938         1.142548
 H        -3.098158         3.336510         1.423556
 H        -0.459197         2.784976         0.627353
 H        -0.696264         2.612412         3.504158
 H        -0.985457         1.029943         4.039883
 H         1.033862         1.818296         1.964747
 H         0.989694         0.429597         2.911075
