19
Iteration:  1979charge 0 multiplicity 1
 O         0.652569        -0.079721         0.136612
 C        -0.331175         0.501545         0.971639
 C        -1.633915        -0.124545         1.577078
 C        -1.829880         1.433920         2.033305
 C        -3.075200         2.007366         1.271647
 O        -2.353006         1.965761         0.006986
 C        -1.064355         1.807977         0.693552
 C        -0.731464         1.777655         3.038954
 C         0.384095         0.976568         2.313166
 H         0.301307        -0.097003        -0.826331
 H        -2.517376        -0.455670         1.033142
 H        -1.469522        -0.883615         2.394978
 H        -3.992641         1.339999         1.153056
 H        -3.422855         3.000375         1.284043
 H        -0.531029         2.699158         0.522178
 H        -0.704335         2.889370         3.121244
 H        -1.026507         1.437113         4.043192
 H         1.185291         1.724950         2.102118
 H         0.609443        -0.005711         2.999774
