19
Iteration:  4648charge 0 multiplicity 1
 O         0.570936        -0.123267         0.140570
 C        -0.279106         0.428757         1.014453
 C        -1.653006        -0.073791         1.374380
 C        -1.841613         1.396278         1.876532
 C        -2.952694         2.197633         1.311165
 O        -2.315479         2.240277        -0.009792
 C        -0.999095         1.793131         0.668503
 C        -0.920470         1.517672         3.127764
 C         0.369432         0.926416         2.459962
 H         0.448533        -1.018575        -0.124478
 H        -2.239917        -0.352022         0.462775
 H        -1.853734        -0.942053         2.088391
 H        -3.938500         1.760397         1.311158
 H        -3.030596         3.182844         1.799263
 H        -0.201044         2.662714         0.607099
 H        -0.682475         2.563701         3.325969
 H        -1.308226         0.848008         3.876628
 H         1.247383         1.575399         2.455137
 H         0.626829         0.018652         3.022338
