19
Iteration:  1698
 O         0.519443        -0.120314         0.039802
 C        -0.295046         0.508955         1.070465
 C        -1.573256        -0.040399         1.644199
 C        -1.869881         1.422824         2.030363
 C        -3.023725         2.019905         1.199322
 O        -2.264784         1.890800        -0.049434
 C        -1.071623         1.827264         0.722845
 C        -0.813798         1.656305         3.096118
 C         0.420883         1.135411         2.281157
 H        -0.187115        -0.527886        -0.559055
 H        -2.365099        -0.435363         1.005893
 H        -1.428938        -0.749948         2.484486
 H        -4.128876         1.612780         1.060747
 H        -3.079627         3.017515         1.580369
 H        -0.315947         2.653292         0.566360
 H        -0.875941         2.695124         3.395623
 H        -1.181796         1.152174         4.009939
 H         1.195478         1.995059         2.121107
 H         0.851702         0.285674         2.864857
