19
Iteration:  1272
 O         0.528044        -0.103169         0.133357
 C        -0.286508         0.484301         1.049303
 C        -1.575864        -0.068739         1.654145
 C        -1.814747         1.501032         1.986202
 C        -3.120507         1.951009         1.228373
 O        -2.361195         1.913247        -0.020120
 C        -1.061699         1.799482         0.699778
 C        -0.770818         1.805013         3.014735
 C         0.398047         0.984056         2.291526
 H         0.653314         0.482440        -0.669901
 H        -2.209809        -0.522773         0.902984
 H        -1.342207        -0.827121         2.474611
 H        -3.859406         1.261339         1.036124
 H        -3.409659         2.931323         1.586934
 H        -0.382785         2.660732         0.377006
 H        -0.385740         2.857911         3.277454
 H        -0.978484         1.291846         3.965161
 H         1.194715         1.695952         2.093704
 H         0.665050         0.121448         2.970665
