19
Iteration:  1192
 O         0.585733        -0.161323         0.097263
 C        -0.302910         0.426308         0.997407
 C        -1.597908        -0.060691         1.692767
 C        -1.776580         1.481624         2.004249
 C        -3.067414         2.020786         1.241810
 O        -2.388674         1.941051        -0.022784
 C        -1.150837         1.794286         0.626583
 C        -0.848368         1.664140         3.128015
 C         0.405984         1.185860         2.213011
 H         1.536104        -0.213411         0.391759
 H        -2.231671        -0.402912         0.815862
 H        -1.504170        -0.818227         2.434567
 H        -4.082216         1.587077         1.155707
 H        -3.340942         3.082643         1.424140
 H        -0.439351         2.652076         0.709287
 H        -0.647523         2.636157         3.586908
 H        -0.903528         0.803882         3.931739
 H         1.272032         1.932284         1.701966
 H         1.069100         0.506055         2.718974
