19
Iteration:   915
 O         0.632170        -0.179525         0.094376
 C        -0.358765         0.471735         1.013099
 C        -1.589619        -0.063679         1.555002
 C        -1.847426         1.512870         1.993773
 C        -3.166746         1.924640         1.269898
 O        -2.410949         1.958300         0.036055
 C        -1.091325         1.795820         0.642905
 C        -0.686115         1.765122         3.091067
 C         0.466236         1.131058         2.241633
 H         1.281916        -0.666036         0.581512
 H        -2.473767        -0.419794         1.006738
 H        -1.422934        -0.637391         2.428192
 H        -4.039044         1.224588         1.239812
 H        -3.623171         2.875473         1.567078
 H        -0.462434         2.732755         0.248287
 H        -0.643851         2.842619         3.460215
 H        -0.973004         1.296058         4.106427
 H         1.114634         1.909140         1.747066
 H         0.820039         0.322433         2.746932
