19
Iteration:  2895
 O         0.641633        -0.117511         0.106713
 C        -0.288886         0.485128         0.951416
 C        -1.687345        -0.077894         1.612733
 C        -1.818327         1.452076         1.954036
 C        -2.962599         2.170290         1.249661
 O        -2.354514         1.934297        -0.040225
 C        -1.096895         1.771727         0.691683
 C        -0.891191         1.593469         3.163577
 C         0.434877         1.060033         2.331373
 H         0.113745        -0.191749        -0.774468
 H        -2.416388        -0.379506         0.833157
 H        -1.533908        -0.833322         2.357125
 H        -3.960380         1.513363         1.409958
 H        -3.126463         3.259964         1.638318
 H        -0.451903         2.779396         0.507481
 H        -0.615991         2.598757         3.517583
 H        -1.085498         0.892501         3.966640
 H         0.952922         1.945950         2.153723
 H         1.092420         0.277027         2.784842
