19
Iteration:  4458
 O         0.512150        -0.062743         0.026372
 C        -0.279692         0.486746         1.111904
 C        -1.717826        -0.119987         1.517166
 C        -1.915561         1.388870         1.901086
 C        -2.976331         2.218631         1.237315
 O        -2.169353         2.128447        -0.029004
 C        -1.068547         1.803683         0.787133
 C        -0.881534         1.490937         3.042059
 C         0.388684         0.924178         2.381376
 H         0.936495        -0.913418         0.368492
 H        -2.317265        -0.404160         0.640066
 H        -1.766320        -0.921296         2.192010
 H        -4.072929         2.035983         1.184020
 H        -2.928930         3.242762         1.538159
 H        -0.314316         2.744390         0.881768
 H        -0.700453         2.450318         3.421042
 H        -1.082763         0.883514         3.913410
 H         1.082223         1.701770         2.162227
 H         0.922547         0.210626         2.909590
