19
Iteration:  3136
 O         0.522315        -0.142383        -0.021115
 C        -0.233926         0.640094         1.040952
 C        -1.594210        -0.031738         1.584929
 C        -1.842308         1.452444         1.989883
 C        -2.964046         2.174989         1.254760
 O        -2.313535         1.791720        -0.044718
 C        -1.064804         1.871803         0.707697
 C        -0.883651         1.566527         3.154076
 C         0.400719         1.053664         2.333976
 H        -0.084703        -0.752111        -0.377677
 H        -2.157537        -0.600998         0.834808
 H        -1.420385        -0.631188         2.461038
 H        -3.945940         1.844507         1.166014
 H        -2.893858         3.193629         1.529651
 H        -0.590756         2.745458         0.740430
 H        -0.819416         2.652815         3.549442
 H        -1.214196         0.939217         4.026522
 H         1.217006         1.785057         2.222751
 H         0.594937         0.091436         3.009621
