19
Iteration:  1088charge 0 multiplicity 1
 O         0.601860        -0.169652         0.145746
 C        -0.303807         0.513587         0.962795
 C        -1.538269        -0.104020         1.641579
 C        -1.828468         1.440607         1.981069
 C        -3.097376         2.106131         1.258908
 O        -2.413238         1.822304         0.003356
 C        -1.106392         1.800688         0.641136
 C        -0.777736         1.701676         3.078260
 C         0.408140         1.146030         2.325257
 H         0.640093         0.360374        -0.719189
 H        -2.331283        -0.524912         0.979436
 H        -1.533481        -0.608897         2.627696
 H        -4.007170         1.452216         1.223584
 H        -3.130530         3.187744         1.452749
 H        -0.497826         2.610042         0.367973
 H        -0.571307         2.737432         3.426611
 H        -0.993393         1.128188         3.917953
 H         0.998583         1.960419         1.863769
 H         1.166452         0.379294         2.722620
