19
Iteration:  1559charge 0 multiplicity 1
 O         0.515902        -0.179940         0.122510
 C        -0.342604         0.569233         1.003858
 C        -1.640582         0.015082         1.691387
 C        -1.848665         1.460567         2.014986
 C        -3.039515         1.988278         1.230659
 O        -2.264862         1.901094        -0.114816
 C        -1.057841         1.844426         0.677070
 C        -0.778025         1.581967         3.126018
 C         0.459133         1.121270         2.297175
 H         0.107866        -0.097047        -0.729191
 H        -2.251222        -0.514975         0.920398
 H        -1.564163        -0.711202         2.557014
 H        -3.973663         1.515330         1.113822
 H        -3.207036         3.134642         1.337143
 H        -0.550496         2.773167         0.459104
 H        -0.835434         2.553030         3.722916
 H        -1.037671         0.897966         3.943847
 H         0.989622         1.968149         2.125590
 H         1.121493         0.359961         2.844178
