19
Iteration:  3805charge 0 multiplicity 1
 O         0.579191        -0.250812         0.125923
 C        -0.291654         0.490102         0.975748
 C        -1.644621        -0.082665         1.447379
 C        -1.785574         1.428112         1.966200
 C        -3.024847         2.160877         1.326613
 O        -2.301941         2.094110         0.013729
 C        -1.024778         1.889511         0.653886
 C        -0.880100         1.569808         3.071236
 C         0.313095         0.938326         2.431778
 H         1.047863         0.407833        -0.444739
 H        -2.294831        -0.322056         0.603880
 H        -1.685782        -0.783389         2.276761
 H        -3.969511         1.557375         1.101857
 H        -3.287142         3.228417         1.572146
 H        -0.262816         2.816126         0.568535
 H        -0.629563         2.614187         3.273521
 H        -1.245575         1.079174         3.985587
 H         1.233455         1.457832         2.305950
 H         0.554129         0.110055         2.962329
