19
Iteration:   481charge 0 multiplicity 1
 O         0.620044        -0.115961         0.158505
 C        -0.330356         0.494353         0.968643
 C        -1.675916        -0.082835         1.624679
 C        -1.800299         1.475123         1.941929
 C        -3.052820         2.119975         1.329800
 O        -2.353253         1.872136        -0.040053
 C        -1.104269         1.812787         0.620401
 C        -0.847990         1.556707         3.124544
 C         0.434249         1.136977         2.192588
 H         1.452481         0.201735         0.444403
 H        -2.450786        -0.378434         0.943559
 H        -1.704477        -0.872638         2.443085
 H        -3.996398         1.599577         1.539933
 H        -3.268561         3.250006         1.452749
 H        -0.540718         2.660250         0.408117
 H        -0.612792         2.529236         3.584362
 H        -1.065562         0.802474         3.869989
 H         1.092763         1.936540         1.963171
 H         1.184096         0.401529         2.730140
