19
Iteration:  2654
 O         0.643673        -0.147370         0.239743
 C        -0.327900         0.494505         0.986824
 C        -1.654089        -0.017275         1.540064
 C        -1.841049         1.469406         2.005341
 C        -3.051983         2.230451         1.251961
 O        -2.451399         1.923141        -0.077408
 C        -1.074506         1.821876         0.632756
 C        -0.759257         1.440180         3.199730
 C         0.480512         1.087534         2.255233
 H         0.507136        -0.174527        -0.689174
 H        -2.292921        -0.383471         0.725600
 H        -1.691931        -0.808948         2.357287
 H        -4.155020         1.939481         1.202619
 H        -3.073887         3.278488         1.446738
 H        -0.491742         2.616800         0.324325
 H        -0.758181         2.453316         3.672041
 H        -0.994474         0.572717         3.866104
 H         1.294760         1.846646         2.006668
 H         1.152099         0.316772         2.944652
