19
Iteration:  3158charge 0 multiplicity 1
 O         0.607704        -0.078433         0.141456
 C        -0.309903         0.508680         1.005159
 C        -1.688408         0.023987         1.536986
 C        -1.804127         1.497167         2.011505
 C        -3.084934         2.124882         1.225403
 O        -2.347409         1.860157        -0.005877
 C        -1.047808         1.834593         0.667213
 C        -0.768360         1.589764         3.134396
 C         0.436379         0.972162         2.326835
 H         0.151710        -0.598953        -0.612223
 H        -2.282301        -0.286071         0.670922
 H        -1.617039        -0.804694         2.223821
 H        -3.972821         1.577735         1.331361
 H        -3.249136         3.173091         1.273948
 H        -0.521942         2.715243         0.569041
 H        -0.556669         2.668778         3.522790
 H        -1.061382         0.983837         4.048008
 H         1.028047         1.821145         1.964386
 H         0.961074         0.020044         2.865433
