19
Iteration:  3125
 O         0.460212        -0.096353         0.021071
 C        -0.284110         0.541951         0.952225
 C        -1.468064        -0.067773         1.592563
 C        -1.850413         1.398110         1.989712
 C        -2.974171         2.159449         1.238024
 O        -2.292977         1.873637        -0.015604
 C        -1.017437         1.841522         0.652892
 C        -0.918631         1.636065         3.167808
 C         0.338358         1.030324         2.426599
 H        -0.214194        -0.711047        -0.379109
 H        -2.126588        -0.521370         0.819897
 H        -1.230785        -0.782469         2.353960
 H        -3.963467         1.844389         1.367685
 H        -2.924177         3.213034         1.297574
 H        -0.604870         2.737963         0.509069
 H        -0.722071         2.731849         3.458722
 H        -1.091741         1.012382         4.080279
 H         1.089184         1.821218         2.288110
 H         1.040878         0.132741         2.788127
