19
Iteration:  3658charge 0 multiplicity 1
 O         0.595968        -0.232934         0.089334
 C        -0.285759         0.474921         0.982567
 C        -1.588508        -0.001839         1.412761
 C        -1.783634         1.475754         1.927853
 C        -3.036021         2.143596         1.324173
 O        -2.370226         1.985999         0.074080
 C        -0.998854         1.872727         0.642848
 C        -0.868749         1.635059         3.148996
 C         0.291856         0.882914         2.380339
 H         1.414180         0.215534        -0.108033
 H        -2.332412        -0.205301         0.591113
 H        -1.635888        -0.758650         2.226209
 H        -4.053777         1.552058         1.456128
 H        -3.147996         3.180614         1.674371
 H        -0.354025         2.866006         0.380236
 H        -0.755232         2.702270         3.193419
 H        -1.468960         1.347853         4.034253
 H         1.065109         1.624378         2.353618
 H         0.726893         0.011826         2.662487
