19
Iteration:   385charge 0 multiplicity 1
 O         0.613849        -0.059833         0.129135
 C        -0.297958         0.556849         0.957301
 C        -1.549655        -0.036200         1.699006
 C        -1.851434         1.518678         2.028466
 C        -3.113348         2.023797         1.169066
 O        -2.327165         1.861990        -0.018580
 C        -1.067781         1.832174         0.747900
 C        -0.831933         1.568795         3.074117
 C         0.393749         1.056307         2.204216
 H         0.204536        -0.747045        -0.404351
 H        -2.343018        -0.496138         1.159580
 H        -1.395309        -0.617166         2.651141
 H        -4.137827         1.631083         1.122576
 H        -3.324684         3.075501         1.290416
 H        -0.415544         2.780040         0.612785
 H        -0.676647         2.603359         3.374390
 H        -1.020598         0.947769         3.995040
 H         1.103110         1.843711         2.029846
 H         1.076717         0.292138         2.750086
