19
Iteration:  2903charge 0 multiplicity 1
 O         0.666825        -0.137156         0.126554
 C        -0.283766         0.458860         0.921147
 C        -1.675133        -0.067716         1.565759
 C        -1.848434         1.392132         2.005857
 C        -3.044748         2.208094         1.242153
 O        -2.378791         1.960830        -0.032113
 C        -1.090434         1.759381         0.645574
 C        -0.755067         1.586687         3.166491
 C         0.363286         1.059518         2.349682
 H         0.544592        -0.121272        -0.876878
 H        -2.533592        -0.383299         1.026446
 H        -1.452015        -0.723409         2.393392
 H        -4.010568         1.701502         1.205295
 H        -3.121753         3.310814         1.515840
 H        -0.487888         2.737724         0.641370
 H        -0.678156         2.627741         3.559556
 H        -1.001284         0.934964         4.094279
 H         0.914358         1.964116         2.090997
 H         1.065519         0.393793         2.989281
