19
Iteration:  2093charge 0 multiplicity 1
 O         0.613987        -0.255909         0.149994
 C        -0.255369         0.507613         0.965770
 C        -1.491537        -0.111894         1.508606
 C        -1.820851         1.362983         1.999270
 C        -3.093088         2.039782         1.321977
 O        -2.387208         2.050637         0.023486
 C        -1.107031         1.848124         0.703015
 C        -0.835783         1.780828         3.016434
 C         0.348742         1.081932         2.340914
 H         0.154033        -0.498121        -0.742545
 H        -2.136167        -0.574240         0.761660
 H        -1.299527        -0.842059         2.265299
 H        -3.957596         1.561058         1.028696
 H        -3.335360         3.044142         1.607581
 H        -0.486942         2.719691         0.816790
 H        -0.710740         2.872172         3.073455
 H        -1.105002         1.509344         4.102518
 H         1.362817         1.735283         2.113815
 H         0.780112         0.035374         2.842428
