19
Iteration:  2524charge 0 multiplicity 1
 O         0.597870        -0.192847         0.189411
 C        -0.286313         0.578259         1.016956
 C        -1.551368        -0.063987         1.531258
 C        -1.856530         1.384876         1.950523
 C        -2.911637         2.241214         1.358363
 O        -2.391303         1.866809         0.016984
 C        -1.087251         1.816203         0.581518
 C        -0.913532         1.472986         3.056583
 C         0.376415         1.148262         2.297090
 H         0.228750        -0.081238        -0.741053
 H        -2.117001        -0.459649         0.643553
 H        -1.666541        -0.802937         2.395047
 H        -3.939198         2.071741         1.476071
 H        -2.492428         3.299382         1.724186
 H        -0.582707         2.811253         0.189186
 H        -1.060083         2.471064         3.526238
 H        -0.972286         0.916477         4.025646
 H         0.970020         2.047410         2.133469
 H         0.923612         0.390501         2.733865
