19
Iteration:  2538
 O         0.576675        -0.165795         0.164016
 C        -0.258029         0.517188         1.000027
 C        -1.651876        -0.068197         1.494338
 C        -1.779560         1.430378         1.934089
 C        -2.961054         2.168614         1.311334
 O        -2.455928         1.910548        -0.022298
 C        -1.038732         1.762766         0.638193
 C        -0.855259         1.566230         3.153507
 C         0.428542         1.127271         2.353584
 H         0.309232        -0.031787        -0.713597
 H        -2.318892        -0.338770         0.686409
 H        -1.572810        -0.850765         2.272493
 H        -3.989333         1.824587         1.459914
 H        -3.063112         3.275286         1.432908
 H        -0.358244         2.735924         0.515766
 H        -0.649701         2.549861         3.576039
 H        -1.237751         0.789372         3.817149
 H         1.098156         1.989474         2.141607
 H         1.075452         0.473700         2.838553
