19
Iteration:  2853
 O         0.563569        -0.192451         0.009776
 C        -0.253213         0.607796         1.000044
 C        -1.581779        -0.065371         1.512545
 C        -1.825422         1.514379         2.066256
 C        -3.045357         1.993929         1.202237
 O        -2.332636         1.940461        -0.064541
 C        -1.108715         1.956368         0.740764
 C        -0.802261         1.684067         3.208148
 C         0.437881         0.927615         2.387838
 H        -0.017086        -0.883696        -0.383889
 H        -2.351069        -0.192118         0.682334
 H        -1.560778        -0.844095         2.310818
 H        -3.950571         1.262576         1.265163
 H        -3.290252         3.028309         1.240384
 H        -0.560155         2.906057         0.869231
 H        -0.635708         2.763390         3.222851
 H        -1.304998         1.432278         4.095892
 H         1.325407         1.613031         2.347832
 H         0.638691        -0.085350         2.721916
