19
Iteration:  2271
 O         0.577914        -0.139210         0.062254
 C        -0.286896         0.557577         0.984547
 C        -1.575370        -0.015602         1.529004
 C        -1.837060         1.533431         1.942848
 C        -2.963323         2.149952         1.291522
 O        -2.391145         1.729291         0.076493
 C        -1.026191         1.829202         0.679121
 C        -0.861107         1.608976         3.096907
 C         0.355370         1.058095         2.352797
 H         0.130349        -0.184729        -0.841217
 H        -2.145247        -0.311887         0.614012
 H        -1.773034        -0.781959         2.344535
 H        -3.901705         1.694408         1.396911
 H        -2.779921         3.198832         1.468291
 H        -0.567704         2.717559         0.557497
 H        -0.743370         2.581596         3.597368
 H        -1.177394         0.991213         3.997248
 H         1.141378         1.998530         2.180253
 H         0.998366         0.378143         2.858743
