19
Iteration:  2122
 O         0.674863        -0.016165         0.150252
 C        -0.310147         0.511961         1.025805
 C        -1.654067        -0.028341         1.584956
 C        -1.764961         1.458922         1.992673
 C        -3.007270         2.089206         1.304337
 O        -2.422480         1.857089        -0.036668
 C        -1.092429         1.773122         0.642022
 C        -0.797496         1.682834         3.035844
 C         0.383455         0.954617         2.345446
 H         0.289981        -0.354992        -0.679662
 H        -2.373481        -0.373388         0.823899
 H        -1.639458        -0.767074         2.398017
 H        -4.108149         1.697616         1.314601
 H        -3.233576         3.178875         1.537013
 H        -0.428902         2.692770         0.554556
 H        -0.539783         2.758420         3.177334
 H        -1.005698         1.224375         4.005741
 H         1.110120         1.584076         2.030202
 H         0.645139        -0.012418         2.763884
