19
Iteration:  2224charge 0 multiplicity 1
 O         0.697667        -0.155727         0.235345
 C        -0.268951         0.466774         0.971584
 C        -1.587250        -0.072150         1.580421
 C        -1.830735         1.378023         1.969549
 C        -3.202365         2.018983         1.246688
 O        -2.402807         2.115063         0.021856
 C        -1.094771         1.883196         0.692668
 C        -0.721440         1.681445         3.021314
 C         0.374480         0.989288         2.229470
 H         0.258512        -0.725334        -0.460532
 H        -2.428112        -0.449499         1.064620
 H        -1.322958        -0.741718         2.349330
 H        -3.912175         1.228443         1.220826
 H        -3.504814         3.036224         1.608574
 H        -0.478141         2.805878         0.606363
 H        -0.618480         2.773521         3.065045
 H        -0.897111         1.386407         4.036864
 H         1.206968         1.508717         1.953097
 H         0.788271         0.079064         2.815972
