19
Iteration:  2682charge 0 multiplicity 1
 O         0.643085        -0.183864         0.156932
 C        -0.315656         0.487721         0.944023
 C        -1.601913         0.000725         1.517918
 C        -1.770601         1.478025         1.955275
 C        -2.978833         2.099281         1.344576
 O        -2.368518         1.942931        -0.004092
 C        -1.044687         1.848875         0.691682
 C        -0.876752         1.604449         3.088673
 C         0.346300         1.000221         2.306579
 H         0.245790        -0.453803        -0.712865
 H        -2.306886        -0.305552         0.744512
 H        -1.642791        -0.759429         2.257529
 H        -3.961548         1.534304         1.346227
 H        -3.377920         3.129202         1.635499
 H        -0.478052         2.883468         0.632997
 H        -0.765617         2.691091         3.251495
 H        -1.226188         1.247214         4.072564
 H         1.080108         1.755971         2.149010
 H         0.787961         0.287885         2.906858
