19
Iteration:   178charge 0 multiplicity 1
 O         0.572813        -0.250331         0.157505
 C        -0.282521         0.534966         0.986608
 C        -1.507947        -0.043700         1.616977
 C        -1.826824         1.431152         1.956982
 C        -3.091227         1.928986         1.364992
 O        -2.472945         1.922167        -0.113782
 C        -1.090356         1.868109         0.622541
 C        -0.794068         1.774499         3.095510
 C         0.451910         1.127618         2.280423
 H         1.262525         0.343314        -0.151373
 H        -2.262615        -0.506381         0.934703
 H        -1.465264        -0.850699         2.383055
 H        -4.015478         1.274815         1.437290
 H        -3.499227         2.919060         1.612411
 H        -0.618574         2.817969         0.610980
 H        -0.744554         2.821842         3.412141
 H        -0.940289         1.221748         4.097918
 H         1.194997         1.881215         2.047076
 H         1.011571         0.252719         2.734315
