19
Iteration:  2933charge 0 multiplicity 1
 O         0.596227        -0.185602         0.243030
 C        -0.254961         0.538485         0.949488
 C        -1.604959        -0.039296         1.491939
 C        -1.815092         1.405212         1.940733
 C        -2.991060         2.126078         1.370296
 O        -2.400770         1.973648        -0.000875
 C        -1.100818         1.843849         0.679120
 C        -0.836600         1.655348         2.994265
 C         0.387847         0.957730         2.299732
 H         0.729868         0.013767        -0.670064
 H        -2.381506        -0.347360         0.776046
 H        -1.532006        -0.870377         2.288872
 H        -3.818533         1.479016         1.408186
 H        -3.274655         3.111317         1.614675
 H        -0.676718         2.770548         0.756627
 H        -0.711823         2.707822         3.239013
 H        -1.179826         1.126224         3.901515
 H         1.254816         1.753609         2.138344
 H         0.885228         0.185834         2.880385
