19
Iteration:  2661
 O         0.686205        -0.194644         0.199436
 C        -0.237692         0.524560         0.984055
 C        -1.728728        -0.039073         1.556477
 C        -1.877936         1.515191         1.978772
 C        -3.097744         2.174484         1.264869
 O        -2.415564         1.935590        -0.028719
 C        -1.056539         1.824560         0.635696
 C        -0.791361         1.491236         3.139245
 C         0.504154         1.059675         2.282119
 H         0.401008        -0.138863        -0.688361
 H        -2.342161        -0.425417         0.744183
 H        -1.768392        -0.731941         2.347057
 H        -4.256445         1.964971         1.457119
 H        -3.008893         3.287257         1.419256
 H        -0.519381         2.812682         0.246332
 H        -0.855364         2.334019         3.830497
 H        -0.888038         0.713053         3.876681
 H         1.168021         1.837076         2.021996
 H         1.007603         0.271759         2.834585
