19
Iteration:  4278
 O         0.574342         0.019170         0.006516
 C        -0.334079         0.420835         1.061589
 C        -1.692622        -0.057495         1.445936
 C        -1.859423         1.543752         1.975680
 C        -3.001748         2.213484         1.217524
 O        -2.220356         2.060043         0.013751
 C        -1.025311         1.806524         0.719729
 C        -0.841750         1.577530         3.150442
 C         0.303005         0.671513         2.417628
 H         1.155154        -0.673133         0.343244
 H        -2.368117        -0.222520         0.581651
 H        -1.683585        -0.946186         2.075325
 H        -4.005761         1.634922         1.148089
 H        -3.269522         3.325347         1.281002
 H        -0.213458         2.776790         0.620890
 H        -0.590075         2.636722         3.263746
 H        -1.277423         1.299848         4.122695
 H         1.203246         1.253327         2.227234
 H         0.643593        -0.067499         3.058449
