19
Iteration:  1356charge 0 multiplicity 1
 O         0.672522        -0.112816         0.161877
 C        -0.223139         0.505859         0.960002
 C        -1.633174        -0.052816         1.539958
 C        -1.821203         1.481444         1.944150
 C        -3.060203         2.115711         1.329787
 O        -2.467899         1.871649         0.022836
 C        -1.070782         1.817106         0.654208
 C        -0.799094         1.714382         3.073976
 C         0.332591         1.000776         2.240351
 H         1.170193        -0.776066         0.617642
 H        -2.332336        -0.394979         0.811492
 H        -1.420204        -0.720492         2.339577
 H        -4.056859         1.518954         1.423805
 H        -3.472542         3.135603         1.425890
 H        -0.556145         2.676396         0.294281
 H        -0.586768         2.734119         3.184466
 H        -0.924268         1.149254         4.016997
 H         1.237891         1.701168         2.156852
 H         0.797758         0.237448         2.773472
