19
Iteration:  3984
 O         0.472204        -0.132998        -0.001834
 C        -0.240019         0.588759         1.046082
 C        -1.607835        -0.028108         1.360073
 C        -1.848787         1.561635         1.981456
 C        -3.064748         2.155591         1.138698
 O        -2.177818         1.986536        -0.026593
 C        -0.993034         1.958151         0.799224
 C        -0.929870         1.467607         3.251368
 C         0.379477         0.826453         2.446234
 H         0.274274        -1.007644         0.322093
 H        -2.257905        -0.281313         0.555345
 H        -1.571924        -0.829012         2.105910
 H        -3.900325         1.472123         1.054688
 H        -3.219916         3.264454         1.498983
 H        -0.517287         2.993358         0.623329
 H        -0.617761         2.440383         3.705843
 H        -1.253513         0.801142         4.092293
 H         0.978882         1.592138         2.301368
 H         0.872570        -0.063402         2.823025
