19
Iteration:  2204charge 0 multiplicity 1
 O         0.614474        -0.222358         0.126568
 C        -0.273643         0.490487         0.978499
 C        -1.622688        -0.113190         1.578858
 C        -1.817834         1.358344         2.020441
 C        -3.096354         1.928648         1.293946
 O        -2.325199         2.142744         0.030874
 C        -1.083732         1.839967         0.708688
 C        -0.862075         1.805391         3.010458
 C         0.404302         1.072508         2.262378
 H         0.272557        -0.664982        -0.611626
 H        -2.115301        -0.504439         0.697957
 H        -1.581174        -0.830407         2.431479
 H        -3.869778         1.264451         1.107132
 H        -3.399647         2.887544         1.610206
 H        -0.512049         2.661527         0.799557
 H        -0.544634         2.828710         3.116069
 H        -1.054247         1.398088         4.020688
 H         1.332500         1.780702         2.128741
 H         0.902564         0.262689         2.856431
