19
Iteration:    31charge 0 multiplicity 1
 O         0.544417        -0.186346         0.130685
 C        -0.271783         0.571373         1.018756
 C        -1.481532        -0.101503         1.705293
 C        -1.865434         1.436951         2.011923
 C        -3.143248         1.954414         1.230841
 O        -2.442449         1.863747        -0.102247
 C        -1.164862         1.842228         0.649557
 C        -0.760895         1.690463         3.120804
 C         0.461675         1.190348         2.201678
 H         1.483380         0.029041         0.289182
 H        -2.075412        -0.760807         1.153484
 H        -1.201021        -0.531093         2.655287
 H        -4.029998         1.365096         1.293589
 H        -3.249305         3.028533         1.530275
 H        -0.662823         2.787714         0.574256
 H        -0.676430         2.792939         3.383357
 H        -0.900287         1.057621         3.948839
 H         0.924261         2.099037         1.706050
 H         1.290801         0.664300         2.650233
