19
Iteration:  1197charge 0 multiplicity 1
 O         0.602693        -0.179777         0.113859
 C        -0.295100         0.470934         0.992243
 C        -1.603348        -0.056012         1.670424
 C        -1.822158         1.434229         1.970821
 C        -3.067039         2.014730         1.253760
 O        -2.412392         1.931682        -0.030731
 C        -1.125815         1.813563         0.652583
 C        -0.800892         1.649541         3.104966
 C         0.427648         1.197462         2.236855
 H         1.517722        -0.156398         0.347387
 H        -2.396425        -0.272597         0.949646
 H        -1.591222        -0.795145         2.556468
 H        -4.105639         1.646989         1.321715
 H        -3.121673         3.131863         1.276544
 H        -0.494040         2.744618         0.705042
 H        -0.697976         2.658119         3.598830
 H        -0.877445         0.849799         3.762494
 H         0.956543         1.883980         1.737486
 H         1.033608         0.371453         2.742428
