19
Iteration:  2159
 O         0.600863        -0.133056         0.095298
 C        -0.292570         0.598240         1.007164
 C        -1.577891         0.042363         1.620626
 C        -1.803568         1.526422         1.979053
 C        -3.026835         2.113866         1.225789
 O        -2.373112         1.740983        -0.034636
 C        -1.086463         1.861246         0.695809
 C        -0.833489         1.553104         3.135698
 C         0.383524         1.024417         2.293094
 H         0.083911        -0.126159        -0.680234
 H        -2.370113        -0.196559         0.944056
 H        -1.514457        -0.602445         2.472200
 H        -3.953774         1.669589         1.289076
 H        -3.021474         3.194948         1.341723
 H        -0.711632         2.793980         0.622574
 H        -0.756351         2.551669         3.570300
 H        -0.962945         0.850952         3.962637
 H         1.266061         1.723903         2.126368
 H         0.980964         0.162081         2.805303
