19
Iteration:  3592charge 0 multiplicity 1
 O         0.528766        -0.087214         0.010852
 C        -0.291357         0.546108         0.983469
 C        -1.699172        -0.020856         1.545005
 C        -1.757156         1.505818         1.931403
 C        -2.999986         2.063525         1.250764
 O        -2.254842         1.969025         0.009064
 C        -1.014677         1.825623         0.747894
 C        -0.928967         1.561056         3.159721
 C         0.400081         1.018774         2.346059
 H         0.564571        -1.053730         0.213216
 H        -2.409967        -0.210221         0.709629
 H        -1.693822        -0.811573         2.338735
 H        -3.929840         1.330449         1.166981
 H        -3.291389         3.088198         1.513975
 H        -0.447298         2.741744         0.588583
 H        -0.737438         2.522761         3.580396
 H        -1.148281         0.806259         3.964153
 H         1.233694         1.699208         2.138607
 H         0.809845         0.178274         2.802151
