19
Iteration:  4594charge 0 multiplicity 1
 O         0.458171        -0.147049         0.065063
 C        -0.332806         0.590694         1.038215
 C        -1.724667        -0.044668         1.431224
 C        -1.867780         1.411588         1.963607
 C        -2.984753         2.150643         1.163920
 O        -2.209851         2.088668        -0.069341
 C        -1.018829         1.964303         0.779233
 C        -0.819618         1.483774         3.178733
 C         0.422600         0.872936         2.402612
 H         0.780128        -0.972429         0.399115
 H        -2.233633        -0.187756         0.449139
 H        -1.731564        -0.990322         2.121342
 H        -3.897742         1.630606         1.032996
 H        -3.167641         3.118537         1.613390
 H        -0.332168         2.827738         0.851218
 H        -0.590008         2.397029         3.775155
 H        -1.118797         0.784055         3.977330
 H         1.290192         1.538525         2.170578
 H         0.770237         0.039419         3.090854
