19
Iteration:  1920charge 0 multiplicity 1
 O         0.591178        -0.209289         0.110233
 C        -0.233022         0.559851         0.980556
 C        -1.561531        -0.023248         1.511790
 C        -1.823617         1.443168         1.972484
 C        -3.028275         2.063534         1.326267
 O        -2.390992         1.862987         0.007056
 C        -1.027725         1.843980         0.647325
 C        -0.879113         1.604631         3.131881
 C         0.402929         1.175017         2.299413
 H        -0.046769        -0.792743        -0.304391
 H        -2.225252        -0.323295         0.644343
 H        -1.550074        -0.665335         2.441917
 H        -4.159606         1.649173         1.517630
 H        -3.011627         3.206511         1.583522
 H        -0.467204         2.818242         0.409971
 H        -0.912787         2.616083         3.531640
 H        -1.260105         0.850048         3.798762
 H         1.015211         2.058305         2.215483
 H         1.059985         0.506695         2.759135
