19
Iteration:   868
 O         0.533639        -0.192379         0.084168
 C        -0.263003         0.531952         0.991333
 C        -1.500699        -0.147971         1.556538
 C        -1.804108         1.430868         1.962310
 C        -3.025105         2.141769         1.333754
 O        -2.450287         1.805068         0.012457
 C        -1.127209         1.788544         0.615383
 C        -0.808685         1.788534         3.081920
 C         0.393571         1.113032         2.351780
 H         1.238105         0.423498        -0.131709
 H        -2.075624        -0.525873         0.713502
 H        -1.351681        -0.978060         2.231645
 H        -4.016425         1.741259         1.509884
 H        -3.116906         3.198511         1.419500
 H        -0.751652         2.789058         0.348645
 H        -0.645592         2.836367         3.385999
 H        -0.948774         1.264187         3.980042
 H         1.163598         1.812643         2.164856
 H         0.621183         0.253803         3.025983
