19
Iteration:  2596
 O         0.540347        -0.122643         0.048589
 C        -0.232190         0.512815         1.045508
 C        -1.574001        -0.137585         1.520054
 C        -1.787956         1.450394         2.007514
 C        -3.089216         1.970103         1.290344
 O        -2.342112         2.073794        -0.057982
 C        -1.097196         1.897660         0.698911
 C        -0.777221         1.765449         3.090375
 C         0.379475         0.905069         2.406449
 H        -0.131221        -0.727551        -0.450150
 H        -2.109592        -0.420658         0.610914
 H        -1.536844        -0.848843         2.283091
 H        -4.004166         1.213874         1.164909
 H        -3.267801         2.952482         1.451785
 H        -0.390251         2.743912         0.553115
 H        -0.382679         2.793615         3.152744
 H        -1.091499         1.559467         4.103480
 H         1.243527         1.540405         2.313393
 H         0.476351         0.006308         3.168226
