19
Iteration:  1315charge 0 multiplicity 1
 O         0.522515        -0.143841         0.052451
 C        -0.262193         0.532957         1.039360
 C        -1.483049        -0.034184         1.570072
 C        -1.853141         1.483697         1.971436
 C        -3.081337         2.086223         1.220533
 O        -2.367320         1.807909         0.003284
 C        -1.019747         1.808693         0.711237
 C        -0.844273         1.646863         3.103233
 C         0.426568         1.160742         2.328058
 H        -0.067544        -0.869734        -0.228965
 H        -2.107731        -0.393063         0.776632
 H        -1.445367        -0.706904         2.471003
 H        -3.965705         1.509334         1.489948
 H        -3.224407         3.192658         1.362663
 H        -0.493688         2.788147         0.615822
 H        -0.852766         2.750804         3.416187
 H        -1.058843         0.986309         3.957584
 H         1.102771         1.952804         1.897259
 H         0.873839         0.333542         2.932624
