19
Iteration:  3524charge 0 multiplicity 1
 O         0.665679        -0.047600         0.174824
 C        -0.337331         0.483249         0.944747
 C        -1.731250        -0.138769         1.485928
 C        -1.832787         1.427217         2.022021
 C        -3.033936         2.136672         1.259638
 O        -2.318299         2.024606        -0.013221
 C        -1.050749         1.775436         0.654114
 C        -0.790801         1.596505         3.116220
 C         0.402316         0.990349         2.341690
 H         0.202881        -0.473232        -0.534545
 H        -2.473004        -0.349709         0.735776
 H        -1.788329        -0.881847         2.295867
 H        -4.003896         1.540776         1.253047
 H        -3.157085         3.231755         1.591959
 H        -0.280529         2.603937         0.670742
 H        -0.603824         2.655687         3.240807
 H        -1.165330         1.234620         4.126379
 H         1.097337         1.752837         2.241057
 H         0.948500         0.198917         2.814003
