19
Iteration:   115charge 0 multiplicity 1
 O         0.632791         0.079291         0.068888
 C        -0.338778         0.522409         1.003704
 C        -1.621132        -0.104426         1.720217
 C        -1.821974         1.507437         1.985912
 C        -3.152518         2.033841         1.227664
 O        -2.376498         1.746781         0.031856
 C        -1.037655         1.690412         0.615154
 C        -0.756636         1.744750         3.086712
 C         0.417354         1.118223         2.253845
 H         0.683266        -0.888395        -0.044657
 H        -2.386139        -0.432017         0.989141
 H        -1.535568        -0.805311         2.621244
 H        -3.995646         1.285245         1.310112
 H        -3.561368         3.042971         1.345547
 H        -0.369762         2.530093         0.221099
 H        -0.630350         2.765347         3.397573
 H        -0.930247         1.356265         4.142232
 H         1.185899         1.816395         1.813330
 H         1.009416         0.355448         2.785093
