19
Iteration:  4072
 O         0.529354        -0.204269         0.124116
 C        -0.294704         0.511777         0.982762
 C        -1.634558        -0.005242         1.321096
 C        -1.819394         1.481320         1.945042
 C        -2.969421         2.133166         1.333933
 O        -2.297467         2.111397        -0.024025
 C        -0.953407         1.861450         0.727468
 C        -0.922055         1.493007         3.139085
 C         0.263429         0.919543         2.415666
 H         1.260514        -0.574248         0.630985
 H        -2.243299        -0.112949         0.418229
 H        -1.622756        -0.942397         1.863982
 H        -3.880139         1.607387         1.152407
 H        -3.172706         3.176236         1.661464
 H        -0.324871         2.722766         0.614784
 H        -0.721027         2.527393         3.586132
 H        -1.168060         0.871599         4.023249
 H         1.078051         1.764711         2.071100
 H         0.874879         0.100523         2.904266
