19
Iteration:  4562charge 0 multiplicity 1
 O         0.560263         0.033637        -0.123927
 C        -0.315457         0.406292         0.990158
 C        -1.695201        -0.081250         1.549405
 C        -1.877962         1.445465         1.932703
 C        -2.905453         2.308755         1.272443
 O        -2.180435         1.954029         0.079187
 C        -0.932214         1.814510         0.745836
 C        -0.995521         1.584705         3.120142
 C         0.222407         0.821789         2.399813
 H         1.094879        -0.764181         0.124604
 H        -2.404298        -0.449893         0.747827
 H        -1.565015        -0.869999         2.444638
 H        -3.909078         1.931673         1.113079
 H        -2.820778         3.386487         1.589982
 H        -0.238197         2.612200         0.544932
 H        -0.602648         2.648910         3.517404
 H        -1.486774         0.982316         3.975252
 H         1.121028         1.546188         2.262808
 H         0.560414        -0.031975         3.171833
