19
Iteration:  2778charge 0 multiplicity 1
 O         0.607442        -0.220845         0.171966
 C        -0.199351         0.523276         1.021656
 C        -1.610666        -0.079843         1.523377
 C        -1.809527         1.451168         1.917756
 C        -3.049147         2.288070         1.289361
 O        -2.399644         1.854180         0.022956
 C        -1.105228         1.889257         0.657934
 C        -0.919044         1.493134         3.159466
 C         0.448960         1.070599         2.288627
 H         0.625824        -0.008660        -0.765412
 H        -2.116575        -0.408065         0.543586
 H        -1.713787        -0.872505         2.322850
 H        -4.018366         1.919249         1.256605
 H        -3.100652         3.374781         1.448788
 H        -0.655032         2.791794         0.531664
 H        -0.876403         2.568424         3.405903
 H        -0.959899         0.897975         4.077134
 H         1.126493         2.017326         1.934470
 H         1.125303         0.339227         2.747636
