19
Iteration:  2306
 O         0.524299        -0.059970         0.083419
 C        -0.324526         0.534226         1.044558
 C        -1.601074        -0.084255         1.714303
 C        -1.879810         1.395461         1.984964
 C        -3.037434         2.036160         1.157868
 O        -2.284566         1.960719        -0.051161
 C        -1.078862         1.842186         0.730780
 C        -0.737583         1.642596         3.078789
 C         0.407551         1.009631         2.320853
 H         0.039434        -0.197003        -0.787994
 H        -2.240521        -0.615822         0.943764
 H        -1.479119        -0.678362         2.678486
 H        -4.023853         1.562637         1.232422
 H        -3.269442         2.965697         1.582638
 H        -0.471320         2.663735         0.604046
 H        -0.531402         2.714748         3.213662
 H        -1.113281         1.103751         3.976984
 H         1.210122         1.825825         1.906433
 H         0.901528         0.123656         2.662152
