19
Iteration:  3044
 O         0.638972        -0.228625         0.158402
 C        -0.261162         0.520940         0.990476
 C        -1.600930         0.037893         1.505171
 C        -1.800469         1.438884         1.923194
 C        -3.016057         2.103783         1.380985
 O        -2.452799         1.939324         0.022851
 C        -1.040803         1.839131         0.613416
 C        -0.891155         1.618600         3.065512
 C         0.412727         1.027568         2.360135
 H         0.458675        -0.065735        -0.830049
 H        -2.224457        -0.218583         0.624176
 H        -1.392917        -0.841638         2.216579
 H        -3.972227         1.648535         1.482894
 H        -3.058382         3.160860         1.631500
 H        -0.556654         2.710488         0.347271
 H        -0.752644         2.665805         3.324800
 H        -1.231299         1.133950         4.022164
 H         1.262920         1.775863         2.408614
 H         0.697164         0.004236         2.722085
