19
Iteration:  4759charge 0 multiplicity 1
 O         0.494695        -0.240985         0.198481
 C        -0.308798         0.520616         0.997138
 C        -1.669053        -0.112860         1.418507
 C        -1.912166         1.317152         1.913309
 C        -2.957388         2.193386         1.249765
 O        -2.203894         2.206135        -0.002961
 C        -0.990471         1.880937         0.818552
 C        -0.907036         1.510137         3.021499
 C         0.357958         0.902144         2.325809
 H         1.105275         0.442681        -0.215198
 H        -2.338285        -0.429806         0.544546
 H        -1.585658        -0.953328         2.260213
 H        -3.945545         1.730253         1.258024
 H        -3.100513         3.270659         1.688187
 H        -0.494103         2.980677         0.879042
 H        -0.735612         2.619772         3.291799
 H        -1.114733         0.921060         3.969029
 H         1.132537         1.712903         2.218654
 H         0.899423         0.111855         2.953072
