19
Iteration:  1894
 O         0.675451        -0.048640         0.193092
 C        -0.341992         0.506701         0.965193
 C        -1.618482        -0.155101         1.558583
 C        -1.852236         1.425965         2.020189
 C        -3.025233         2.133764         1.270368
 O        -2.414197         1.879489        -0.019558
 C        -1.089086         1.772711         0.665055
 C        -0.742266         1.674610         3.089830
 C         0.382071         1.053319         2.268459
 H         0.301911        -0.396723        -0.604908
 H        -2.229800        -0.493561         0.763468
 H        -1.606722        -0.715960         2.451288
 H        -4.085705         1.805289         1.343664
 H        -3.025258         3.326058         1.483157
 H        -0.533998         2.744262         0.609987
 H        -0.652109         2.762264         3.262968
 H        -1.089450         1.057187         3.958997
 H         1.117813         1.905630         2.100183
 H         0.906699         0.155427         2.718180
