19
Iteration:   398charge 0 multiplicity 1
 O         0.558699        -0.071486        -0.011143
 C        -0.266579         0.520003         1.056477
 C        -1.583541        -0.109724         1.615961
 C        -1.868649         1.459946         1.938613
 C        -3.074919         2.039944         1.232791
 O        -2.323877         1.862844        -0.069571
 C        -1.079297         1.851140         0.719176
 C        -0.795399         1.736063         3.158279
 C         0.405650         1.079415         2.364305
 H         0.150237        -0.970852        -0.110860
 H        -2.126161        -0.606305         0.806924
 H        -1.410418        -0.716680         2.521786
 H        -3.864230         1.261901         1.288719
 H        -3.307711         3.089691         1.457833
 H        -0.593211         2.935741         0.683529
 H        -0.537207         2.707330         3.561011
 H        -1.054031         1.032312         4.029277
 H         1.150966         1.821551         2.018407
 H         0.822900         0.258065         2.911853
