19
Iteration:  3048
 O         0.624798        -0.229880         0.196106
 C        -0.257319         0.552765         0.931993
 C        -1.568180         0.017703         1.489151
 C        -1.772849         1.448823         1.946457
 C        -3.024652         2.082921         1.390409
 O        -2.464927         1.955627        -0.007952
 C        -1.061678         1.813571         0.624227
 C        -0.866862         1.628642         3.075831
 C         0.381155         1.026001         2.353419
 H         0.515118        -0.035942        -0.715622
 H        -2.196273        -0.210398         0.626265
 H        -1.550050        -0.756415         2.231773
 H        -4.037469         1.651932         1.360467
 H        -3.055946         3.126855         1.738545
 H        -0.521580         2.753236         0.335621
 H        -0.625888         2.700595         3.385388
 H        -1.182778         1.097724         4.015982
 H         1.279608         1.641157         2.370614
 H         0.695674        -0.038716         2.817982
