19
Iteration:  4829
 O         0.514209        -0.110233         0.044482
 C        -0.265527         0.531881         1.055858
 C        -1.666833         0.034930         1.426383
 C        -1.877694         1.469856         2.011586
 C        -3.035671         2.205179         1.173608
 O        -2.278188         2.005367        -0.077101
 C        -1.004376         1.911657         0.787926
 C        -0.829241         1.483426         3.151290
 C         0.395732         0.813744         2.428539
 H         0.665776        -1.052425         0.400287
 H        -2.284190        -0.113671         0.570909
 H        -1.693517        -0.849469         2.104113
 H        -4.022202         1.706327         1.060371
 H        -3.210480         3.246293         1.391289
 H        -0.360605         2.906698         0.790296
 H        -0.527689         2.514381         3.320718
 H        -1.112788         0.975686         4.087519
 H         1.319108         1.456825         2.393539
 H         0.687449        -0.122380         2.886736
