19
Iteration:  3453charge 0 multiplicity 1
 O         0.464350        -0.173276         0.074355
 C        -0.245695         0.581324         1.022037
 C        -1.657516        -0.018409         1.509321
 C        -1.816519         1.437665         1.915815
 C        -3.049835         2.019150         1.312725
 O        -2.308948         1.983117        -0.018038
 C        -1.019799         1.826400         0.718830
 C        -0.828574         1.628432         3.091516
 C         0.380380         0.959612         2.371625
 H         1.379019         0.034594         0.208439
 H        -2.215842        -0.134363         0.572382
 H        -1.779296        -0.876767         2.203950
 H        -3.912729         1.353792         1.316750
 H        -3.276106         3.125145         1.464392
 H        -0.505438         2.880105         0.586192
 H        -0.578918         2.715565         3.202436
 H        -1.033110         1.243896         4.071649
 H         1.173802         1.715691         2.198968
 H         0.940410         0.161091         2.880909
