19
Iteration:  1704
 O         0.530048        -0.086996         0.051898
 C        -0.304086         0.546290         1.018663
 C        -1.594388        -0.012018         1.682500
 C        -1.829093         1.470048         1.983783
 C        -3.070126         2.001207         1.219314
 O        -2.250666         1.882597        -0.025051
 C        -1.036680         1.769967         0.706090
 C        -0.824772         1.660177         3.078563
 C         0.401083         1.077302         2.318777
 H        -0.068867        -0.586411        -0.574571
 H        -2.260624        -0.350833         0.861645
 H        -1.451520        -0.693679         2.518168
 H        -4.032157         1.630140         1.178007
 H        -3.466120         3.064058         1.642877
 H        -0.357502         2.614852         0.574643
 H        -0.883329         2.774131         3.255934
 H        -0.949759         1.056068         4.017347
 H         1.140076         1.707977         1.952371
 H         0.797938         0.289510         2.963082
