19
Iteration:  3622charge 0 multiplicity 1
 O         0.529259        -0.154392         0.111800
 C        -0.279203         0.536541         0.993401
 C        -1.632895        -0.104252         1.539852
 C        -1.840840         1.336190         1.956129
 C        -3.008402         2.173704         1.193881
 O        -2.316555         2.084224        -0.034439
 C        -1.134964         1.827299         0.724090
 C        -0.846148         1.514659         3.190001
 C         0.400792         1.044287         2.261740
 H         1.155668        -0.523535         0.717420
 H        -2.238076        -0.367709         0.695241
 H        -1.607448        -0.927689         2.233767
 H        -4.034141         1.920780         1.051634
 H        -2.881717         3.160001         1.763496
 H        -0.427912         2.822404         0.697737
 H        -0.616203         2.546410         3.413549
 H        -0.920784         0.957101         4.164883
 H         1.050337         1.808257         1.985668
 H         1.042966         0.178140         2.634979
