19
Iteration:  2749
 O         0.553474        -0.116718         0.114959
 C        -0.318390         0.547924         0.943087
 C        -1.635389        -0.024836         1.598874
 C        -1.753392         1.486154         1.979925
 C        -2.983151         2.070569         1.229440
 O        -2.301175         1.912002        -0.011651
 C        -1.052680         1.827747         0.655567
 C        -0.844028         1.571443         3.162371
 C         0.344857         1.059397         2.350530
 H         0.245156        -0.339000        -0.744056
 H        -2.374524        -0.295797         0.865416
 H        -1.638660        -0.813762         2.315615
 H        -3.914849         1.412512         1.341332
 H        -3.460289         3.085918         1.396162
 H        -0.375857         2.771294         0.459243
 H        -0.745733         2.634716         3.467637
 H        -0.916159         0.960888         4.070381
 H         1.198887         1.635288         2.261444
 H         0.690714         0.155813         2.790028
