19
Iteration:   562charge 0 multiplicity 1
 O         0.621518        -0.095445         0.032373
 C        -0.342166         0.433974         1.015770
 C        -1.714819        -0.034793         1.622023
 C        -1.828064         1.527073         2.058690
 C        -3.109871         1.922103         1.200373
 O        -2.258385         1.967548        -0.016750
 C        -1.097617         1.724192         0.726251
 C        -0.789252         1.765845         3.111479
 C         0.399086         1.044148         2.287091
 H         1.082035         0.563446        -0.492239
 H        -2.656608        -0.483971         1.185016
 H        -1.373824        -0.761914         2.351784
 H        -3.766398         1.012322         1.397814
 H        -3.472043         2.931689         1.374588
 H        -0.503734         2.552128         0.557061
 H        -0.451558         2.795214         3.337378
 H        -1.025417         1.259400         4.109132
 H         1.083516         1.859839         1.797070
 H         0.899594         0.117556         2.783408
