19
Iteration:  1631
 O         0.734703        -0.107107         0.265681
 C        -0.348769         0.434013         0.961827
 C        -1.627753        -0.057508         1.525774
 C        -1.774620         1.551058         1.919033
 C        -3.096339         2.069825         1.363098
 O        -2.423288         1.928101        -0.041630
 C        -1.124084         1.832206         0.623676
 C        -0.758809         1.714339         3.031909
 C         0.369044         0.943141         2.344091
 H         0.415229        -0.353067        -0.571871
 H        -2.491684        -0.349498         0.904981
 H        -1.505803        -0.730216         2.358281
 H        -4.115522         1.455570         1.549569
 H        -3.447517         3.051729         1.409696
 H        -0.516889         2.747619         0.276541
 H        -0.209240         2.609334         3.322438
 H        -0.985605         1.294648         4.074488
 H         1.302480         1.666895         2.017877
 H         0.744765         0.018337         2.756622
