19
Iteration:  1185charge 0 multiplicity 1
 O         0.550543        -0.153534         0.065581
 C        -0.298247         0.456890         1.020939
 C        -1.577796        -0.079989         1.660918
 C        -1.809686         1.504197         1.999257
 C        -3.097447         2.056846         1.247817
 O        -2.356391         1.945616        -0.023906
 C        -1.110534         1.749919         0.640773
 C        -0.839537         1.663497         3.157053
 C         0.422230         1.162911         2.168584
 H         1.427181        -0.261879         0.595916
 H        -2.151392        -0.559612         0.842510
 H        -1.434052        -0.881609         2.472919
 H        -3.891968         1.311108         1.134281
 H        -3.446840         3.014080         1.678822
 H        -0.479012         2.675689         0.369122
 H        -0.668440         2.730569         3.553364
 H        -1.060846         1.093992         4.037768
 H         1.067619         1.923741         1.975121
 H         1.089791         0.500119         2.833088
