19
Iteration:  4514charge 0 multiplicity 1
 O         0.543275        -0.147440         0.115552
 C        -0.302826         0.508162         0.997091
 C        -1.746692        -0.025350         1.323066
 C        -1.795590         1.565858         1.937715
 C        -3.051736         2.124190         1.275469
 O        -2.279622         2.097081         0.012766
 C        -0.955153         1.888664         0.759664
 C        -0.867747         1.530264         3.145477
 C         0.394872         0.831857         2.385710
 H         0.902766        -0.904246         0.577612
 H        -2.357525        -0.163586         0.441533
 H        -1.805436        -0.814952         2.034915
 H        -3.823797         1.366828         1.371944
 H        -3.334722         3.133087         1.412761
 H        -0.174777         2.758886         0.638046
 H        -0.685815         2.506411         3.425608
 H        -1.123087         0.894642         3.956209
 H         1.263814         1.397907         2.212223
 H         0.652510        -0.049862         2.894559
