19
Iteration:  3860
 O         0.516962        -0.025501         0.035376
 C        -0.355437         0.499185         1.023947
 C        -1.733543        -0.000422         1.514299
 C        -1.799548         1.499445         1.976518
 C        -2.969075         2.085522         1.195712
 O        -2.215041         2.005040        -0.076157
 C        -0.941940         1.856989         0.758148
 C        -0.901850         1.493799         3.214683
 C         0.399163         0.909501         2.374225
 H         0.372662        -0.958958        -0.067073
 H        -2.487645        -0.351022         0.764878
 H        -1.703199        -0.708395         2.346506
 H        -4.029158         1.542706         1.064917
 H        -3.307376         3.146173         1.410383
 H        -0.153089         2.727204         0.760049
 H        -0.570096         2.445097         3.602985
 H        -1.372090         0.926327         4.057823
 H         1.043342         1.707106         2.113767
 H         0.843317         0.123126         2.814877
