19
Iteration:  3371
 O         0.591953        -0.258282         0.138815
 C        -0.286993         0.596668         0.972806
 C        -1.555343        -0.000284         1.465829
 C        -1.814564         1.463535         1.974319
 C        -3.026274         2.087277         1.285728
 O        -2.331255         1.932074        -0.015172
 C        -1.123190         1.897794         0.651012
 C        -0.882433         1.562479         3.198344
 C         0.406165         1.080181         2.348286
 H         0.245800        -0.796284        -0.636879
 H        -2.320884        -0.220473         0.674482
 H        -1.486735        -0.837360         2.209757
 H        -3.999637         1.523878         1.389628
 H        -3.121266         3.086961         1.500347
 H        -0.592337         2.774383         0.501713
 H        -0.655055         2.589352         3.550401
 H        -1.067329         0.961550         4.124000
 H         1.053350         2.052866         2.095361
 H         1.001570         0.222988         2.771307
