19
Iteration:  4362charge 0 multiplicity 1
 O         0.537122        -0.117960         0.097115
 C        -0.315532         0.484427         0.931170
 C        -1.736161        -0.071411         1.446115
 C        -1.869434         1.373670         1.959847
 C        -2.952497         2.096965         1.287263
 O        -2.159518         2.160404         0.061269
 C        -0.903403         1.822352         0.754003
 C        -0.976491         1.549033         3.101505
 C         0.322555         0.982392         2.278799
 H         0.733606        -1.008891         0.494519
 H        -2.483670        -0.270267         0.615333
 H        -1.751027        -0.939669         2.157708
 H        -3.976499         1.712665         1.147048
 H        -3.012342         3.123451         1.704746
 H        -0.234575         2.626677         0.814734
 H        -0.855297         2.575391         3.379177
 H        -1.361333         0.997197         4.016029
 H         0.978791         1.848054         1.992765
 H         0.931660         0.206406         2.946490
