19
Iteration:  1260charge 0 multiplicity 1
 O         0.589823        -0.186954         0.089707
 C        -0.265715         0.560290         0.997619
 C        -1.548507        -0.047985         1.615096
 C        -1.811605         1.468635         1.934519
 C        -3.148470         1.976088         1.285316
 O        -2.377992         1.906116         0.009382
 C        -1.087726         1.802200         0.599930
 C        -0.794937         1.776878         3.069544
 C         0.412963         0.962249         2.398173
 H         0.854565         0.502609        -0.476122
 H        -2.358097        -0.318098         0.940964
 H        -1.564747        -0.695650         2.533505
 H        -3.968650         1.396192         1.544552
 H        -3.520646         3.021145         1.350579
 H        -0.552470         2.801300         0.427796
 H        -0.643448         2.912521         2.952538
 H        -1.149692         1.594039         4.135462
 H         1.366889         1.585977         2.240645
 H         0.909084         0.093288         2.873780
