19
Iteration:  2885
 O         0.578189        -0.101986         0.081386
 C        -0.303140         0.544468         1.066327
 C        -1.626878        -0.075331         1.593860
 C        -1.805812         1.494780         1.959953
 C        -2.973232         2.077792         1.321045
 O        -2.325296         1.908661        -0.031174
 C        -1.005831         1.820216         0.675389
 C        -0.933401         1.573268         3.121200
 C         0.422902         1.053898         2.279339
 H        -0.034317        -0.402515        -0.669521
 H        -2.226701        -0.392836         0.703044
 H        -1.743973        -0.780109         2.413510
 H        -4.078112         1.645339         1.365169
 H        -3.021892         3.207177         1.395214
 H        -0.381023         2.789032         0.511961
 H        -0.832995         2.594822         3.517288
 H        -1.314898         0.990516         3.931598
 H         1.183170         1.763830         2.025014
 H         0.950057         0.199344         2.713082
