19
Iteration:  3933
 O         0.669224        -0.223556         0.179326
 C        -0.317466         0.401644         0.900585
 C        -1.685107        -0.112929         1.386924
 C        -1.846710         1.370689         1.941674
 C        -3.050955         2.224862         1.277380
 O        -2.277498         2.178323         0.039562
 C        -0.959681         1.841806         0.767022
 C        -0.928351         1.583282         3.118760
 C         0.351433         0.951475         2.410326
 H         0.665009         0.081714        -0.724894
 H        -2.388122        -0.322792         0.539987
 H        -1.763160        -1.006054         2.088315
 H        -3.988633         1.692018         1.168704
 H        -3.190796         3.214541         1.709517
 H        -0.400206         2.786098         0.601625
 H        -0.954660         2.707384         3.314209
 H        -1.083529         1.164919         4.094576
 H         1.203868         1.751041         2.131300
 H         0.715379        -0.084989         2.860885
