19
Iteration:  1672charge 0 multiplicity 1
 O         0.516700        -0.233359         0.162281
 C        -0.282077         0.554922         1.031808
 C        -1.515446        -0.098179         1.537934
 C        -1.807172         1.452742         1.958319
 C        -3.067991         2.156727         1.266897
 O        -2.338137         1.856461        -0.048779
 C        -1.092951         1.830253         0.682723
 C        -0.805077         1.623929         3.122725
 C         0.414658         1.145532         2.302238
 H         0.117460        -0.147226        -0.745702
 H        -2.170069        -0.551510         0.797012
 H        -1.338037        -0.819538         2.295871
 H        -4.039594         1.651203         1.276677
 H        -3.069194         3.234781         1.591378
 H        -0.440862         2.746788         0.731467
 H        -1.011511         2.680717         3.375077
 H        -1.190246         1.171685         4.071365
 H         1.023903         2.002398         2.039153
 H         0.971098         0.452029         2.833459
