19
Iteration:  1284charge 0 multiplicity 1
 O         0.533756        -0.118012         0.110485
 C        -0.381302         0.536014         1.002805
 C        -1.596814        -0.087356         1.679242
 C        -1.855176         1.434003         2.011383
 C        -3.028612         1.940403         1.218244
 O        -2.312526         1.909200        -0.090996
 C        -1.049707         1.804410         0.719044
 C        -0.738793         1.735294         3.104879
 C         0.411122         1.123657         2.286345
 H         0.312313         0.235582        -0.788588
 H        -2.351723        -0.447077         0.983828
 H        -1.503856        -0.752576         2.609109
 H        -3.854796         1.301496         1.345063
 H        -3.431201         2.915344         1.263361
 H        -0.488961         2.778694         0.857889
 H        -0.803077         2.880715         3.203809
 H        -0.828764         1.270193         4.076227
 H         1.311839         1.520718         1.947545
 H         0.805664         0.189114         2.838237
