19
Iteration:  1058
 O         0.428359        -0.283046         0.137272
 C        -0.182877         0.580481         0.977038
 C        -1.430188        -0.022259         1.530674
 C        -1.813255         1.375995         1.965508
 C        -3.094886         2.000699         1.402799
 O        -2.392581         1.857753        -0.039303
 C        -1.102308         1.815317         0.678044
 C        -0.847370         1.751568         3.017632
 C         0.388288         1.207909         2.308389
 H         1.393783        -0.093035         0.185044
 H        -2.079944        -0.253681         0.737905
 H        -1.568025        -0.701443         2.348914
 H        -4.108792         1.470370         1.405342
 H        -3.236824         3.027677         1.764562
 H        -0.412611         2.716936         0.483469
 H        -0.683697         2.797831         3.280433
 H        -0.996407         1.116080         3.964223
 H         0.940901         2.137746         1.810224
 H         0.995684         0.449320         2.801019
