19
Iteration:   619charge 0 multiplicity 1
 O         0.604423        -0.351070         0.052438
 C        -0.218763         0.594764         0.973085
 C        -1.519379        -0.046627         1.490354
 C        -1.812467         1.471680         1.946706
 C        -3.054175         2.106007         1.318501
 O        -2.446311         1.820932         0.047895
 C        -1.079263         1.908811         0.595923
 C        -0.912142         1.657584         3.171783
 C         0.366778         1.151573         2.392393
 H         1.237793         0.226580        -0.473282
 H        -2.200457        -0.246514         0.701781
 H        -1.345868        -0.821419         2.201777
 H        -4.023385         1.723158         1.594410
 H        -3.081760         3.140143         1.620259
 H        -0.599023         2.817046         0.426762
 H        -0.829714         2.738543         3.506754
 H        -1.221078         1.044942         4.035110
 H         1.333623         1.832476         2.280354
 H         0.781553         0.279338         2.746482
