19
Iteration:  2951charge 0 multiplicity 1
 O         0.612092        -0.272774         0.104755
 C        -0.281066         0.516774         0.975921
 C        -1.603479        -0.041490         1.454106
 C        -1.810409         1.450454         1.920527
 C        -3.086421         1.995618         1.327549
 O        -2.406586         1.988170         0.017800
 C        -1.020682         1.918961         0.625713
 C        -0.828628         1.721795         3.159672
 C         0.402519         1.019855         2.431004
 H         0.263079        -0.047048        -0.739563
 H        -2.227408        -0.303611         0.576313
 H        -1.547105        -0.848158         2.189464
 H        -4.109248         1.400391         1.450075
 H        -3.104558         3.050844         1.774600
 H        -0.269523         2.783219         0.277656
 H        -0.638408         2.800355         3.280150
 H        -1.001430         1.371341         4.149837
 H         1.265201         1.659402         2.401417
 H         0.653937         0.090065         2.859251
