19
Iteration:  3604
 O         0.546995        -0.112096         0.061815
 C        -0.345641         0.484352         0.993987
 C        -1.643393        -0.070150         1.493827
 C        -1.930711         1.446155         2.037687
 C        -3.059614         2.164563         1.234856
 O        -2.216619         1.993254        -0.002074
 C        -0.993159         1.886051         0.744592
 C        -0.793806         1.526580         3.100092
 C         0.368773         1.034162         2.290293
 H         0.819075        -0.932724         0.438653
 H        -2.393423        -0.519020         0.776679
 H        -1.461329        -0.827541         2.315776
 H        -4.045905         1.473671         1.358176
 H        -3.339339         3.191013         1.375798
 H        -0.312687         2.712594         0.733777
 H        -0.798511         2.498743         3.582026
 H        -1.117559         0.811565         3.893656
 H         1.002649         1.935414         1.985814
 H         0.967848         0.295676         2.745866
