19
Iteration:  4645
 O         0.555219        -0.139760         0.149205
 C        -0.268395         0.421257         1.008389
 C        -1.664447        -0.075820         1.367393
 C        -1.791458         1.378366         1.872312
 C        -2.959807         2.163548         1.303344
 O        -2.321921         2.258550        -0.007351
 C        -0.998008         1.825236         0.658093
 C        -0.902507         1.525106         3.129832
 C         0.351424         0.938974         2.464898
 H         0.532147        -1.086883        -0.145820
 H        -2.269319        -0.248391         0.533384
 H        -1.811074        -0.807252         2.075816
 H        -4.006971         1.714871         1.292558
 H        -3.044349         3.192958         1.757639
 H        -0.218655         2.636594         0.610615
 H        -0.761135         2.523760         3.521006
 H        -1.294325         0.839154         3.893829
 H         1.218120         1.540761         2.459743
 H         0.558933         0.077589         2.989271
