19
Iteration:  4760charge 0 multiplicity 1
 O         0.501682        -0.236353         0.194076
 C        -0.304879         0.504792         1.000707
 C        -1.673888        -0.114444         1.424897
 C        -1.913225         1.322340         1.909842
 C        -2.960468         2.200127         1.254518
 O        -2.205146         2.206500        -0.002019
 C        -0.995392         1.878029         0.812185
 C        -0.911033         1.509300         3.022041
 C         0.364193         0.908954         2.324278
 H         1.120868         0.428556        -0.193899
 H        -2.335900        -0.410010         0.547741
 H        -1.627252        -0.973747         2.262255
 H        -3.940355         1.737594         1.257678
 H        -3.094461         3.250625         1.690538
 H        -0.501833         2.995418         0.879755
 H        -0.738697         2.618772         3.278386
 H        -1.115191         0.890574         3.936962
 H         1.170824         1.710847         2.234845
 H         0.885920         0.107539         2.961740
