19
Iteration:   780charge 0 multiplicity 1
 O         0.521297        -0.202146         0.030014
 C        -0.236833         0.461699         0.933584
 C        -1.550403        -0.103011         1.517825
 C        -1.828500         1.410723         1.933612
 C        -3.026254         2.005114         1.371626
 O        -2.392328         1.977739         0.040061
 C        -1.023221         1.772670         0.657434
 C        -0.889966         1.820593         3.049387
 C         0.414432         1.159547         2.351843
 H         1.022722        -0.847846         0.502330
 H        -2.224587        -0.314891         0.739251
 H        -1.421171        -0.876492         2.284043
 H        -3.923867         1.390794         1.591666
 H        -3.244536         3.006775         1.773206
 H        -0.402849         2.768089         0.456467
 H        -0.968561         2.910047         3.202070
 H        -1.240789         1.393117         3.962774
 H         1.174901         1.905473         2.365611
 H         0.686470         0.317195         3.118347
