19
Iteration:  4103
 O         0.445959        -0.266027         0.048957
 C        -0.280534         0.588848         0.956102
 C        -1.655286         0.086570         1.487753
 C        -1.804181         1.507519         1.944650
 C        -3.011113         2.124427         1.231911
 O        -2.232391         2.046976        -0.073131
 C        -0.999143         1.974812         0.742220
 C        -0.906515         1.386906         3.146083
 C         0.379584         0.891276         2.503127
 H         1.429730        -0.212365         0.222298
 H        -2.299526        -0.248641         0.693599
 H        -1.592217        -0.666252         2.274389
 H        -3.884443         1.444112         0.920711
 H        -3.234736         3.075680         1.476404
 H        -0.485342         2.872529         0.800237
 H        -0.746043         2.344058         3.597237
 H        -1.285735         0.685454         3.921494
 H         1.029946         1.866647         2.296030
 H         0.809095         0.012543         2.947461
