19
Iteration:   369charge 0 multiplicity 1
 O         0.656449        -0.116090         0.239415
 C        -0.357952         0.586682         0.984778
 C        -1.640972        -0.041920         1.634914
 C        -1.850106         1.423385         1.987342
 C        -3.055871         2.072437         1.249505
 O        -2.374989         1.854425        -0.048145
 C        -1.101835         1.833663         0.590561
 C        -0.761313         1.604981         3.158474
 C         0.428948         1.101679         2.243328
 H         0.419046        -0.028105        -0.742050
 H        -2.330317        -0.575484         0.894557
 H        -1.470501        -0.809487         2.387896
 H        -3.938565         1.423250         1.258846
 H        -3.240571         3.153836         1.500197
 H        -0.598148         2.723581         0.409225
 H        -0.556114         2.615580         3.592919
 H        -0.971356         0.951603         3.980531
 H         1.116256         1.930679         1.864028
 H         0.971082         0.219869         2.525564
