19
Iteration:  1005
 O         0.608368         0.028268         0.066282
 C        -0.304006         0.506781         1.039403
 C        -1.605041        -0.066698         1.693917
 C        -1.804316         1.502536         1.953315
 C        -3.083483         2.035178         1.268660
 O        -2.420595         1.788015         0.027348
 C        -1.090358         1.771532         0.635423
 C        -0.782048         1.746956         3.001083
 C         0.415442         1.033760         2.289269
 H         0.924561        -0.892175         0.225809
 H        -2.352032        -0.545823         1.103595
 H        -1.484289        -0.705072         2.603156
 H        -3.972794         1.403011         1.371871
 H        -3.550565         2.994085         1.501417
 H        -0.444288         2.685945         0.274638
 H        -0.468737         2.798160         3.013631
 H        -0.971179         1.486544         4.133296
 H         1.324926         1.551914         1.891912
 H         0.866017         0.197496         2.718961
