19
Iteration:   220
 O         0.760343        -0.131751         0.122040
 C        -0.270526         0.517937         0.986632
 C        -1.555607        -0.105310         1.592607
 C        -1.826429         1.473394         1.972902
 C        -3.104793         2.050650         1.342700
 O        -2.478310         1.856011        -0.077267
 C        -1.166564         1.807235         0.714471
 C        -0.813990         1.758141         3.100980
 C         0.448625         1.079840         2.278939
 H         0.199328        -0.614090        -0.575532
 H        -2.244834        -0.464301         0.767304
 H        -1.520692        -0.877647         2.377012
 H        -4.133456         1.588103         1.438063
 H        -3.252143         3.156606         1.587605
 H        -0.592531         2.804788         0.560473
 H        -0.669078         2.874184         3.021090
 H        -1.106106         1.412856         4.139990
 H         1.292067         1.707496         2.058161
 H         0.825532         0.229047         2.950751
