19
Iteration:  2995charge 0 multiplicity 1
 O         0.504515        -0.020341         0.124728
 C        -0.328059         0.616078         1.016527
 C        -1.688594        -0.124769         1.649347
 C        -1.899330         1.349186         2.106727
 C        -2.978645         2.074946         1.194648
 O        -2.260714         1.922791        -0.066742
 C        -1.023037         1.925699         0.648355
 C        -0.789583         1.589414         3.121242
 C         0.458280         0.960405         2.262557
 H         0.023407        -0.700715        -0.296691
 H        -2.381015        -0.524156         0.902026
 H        -1.558605        -0.707188         2.547325
 H        -3.972971         1.449705         0.900654
 H        -3.226961         3.177920         1.403220
 H        -0.432157         2.978531         0.411090
 H        -0.631632         2.658955         3.363172
 H        -0.886315         1.100608         4.071529
 H         1.132157         1.703448         1.923676
 H         0.858659         0.126560         2.767987
