19
Iteration:  1094charge 0 multiplicity 1
 O         0.612186        -0.109078         0.146332
 C        -0.314375         0.507691         1.014196
 C        -1.545564        -0.056079         1.676743
 C        -1.843579         1.475314         1.936716
 C        -3.102200         2.087097         1.297683
 O        -2.394649         1.811034        -0.034115
 C        -1.090052         1.748353         0.649211
 C        -0.767041         1.677656         3.084367
 C         0.390347         1.104479         2.265295
 H         0.592703         0.138318        -0.806431
 H        -2.344898        -0.439615         1.019456
 H        -1.403760        -0.719216         2.545901
 H        -4.059389         1.595240         1.268282
 H        -3.231011         3.169367         1.533749
 H        -0.490998         2.698025         0.340819
 H        -0.571190         2.721289         3.353175
 H        -1.020501         1.132590         4.077589
 H         1.107446         1.870352         1.894623
 H         1.043038         0.450098         2.801990
