19
Iteration:  2835
 O         0.605543        -0.124676         0.100065
 C        -0.253613         0.493535         0.994270
 C        -1.619211         0.004889         1.560489
 C        -1.842715         1.475310         1.934509
 C        -3.143677         1.976131         1.260954
 O        -2.323875         2.031221        -0.006014
 C        -1.036905         1.868894         0.734583
 C        -0.808600         1.726327         3.064047
 C         0.387075         0.893141         2.370758
 H         0.103284        -0.759089        -0.484534
 H        -2.277513        -0.346815         0.749498
 H        -1.443313        -0.786255         2.332928
 H        -3.898990         1.302114         1.090227
 H        -3.493087         2.955597         1.654212
 H        -0.508109         2.791515         0.538341
 H        -0.506559         2.766078         3.296782
 H        -0.833187         1.167744         4.054161
 H         1.385822         1.506747         2.147876
 H         0.613514         0.037809         2.992863
