19
Iteration:  4522charge 0 multiplicity 1
 O         0.519442        -0.077980         0.143231
 C        -0.318685         0.532711         1.085535
 C        -1.706046        -0.049349         1.336422
 C        -1.862983         1.527074         2.011455
 C        -3.020346         2.147548         1.228007
 O        -2.295996         2.073413        -0.022932
 C        -0.968664         1.871692         0.695086
 C        -0.785868         1.530033         3.095076
 C         0.382112         0.770397         2.405675
 H         0.976239        -0.895052         0.380561
 H        -2.262835        -0.132043         0.382822
 H        -1.855065        -0.854947         2.003358
 H        -4.073054         1.697473         1.236457
 H        -3.150907         3.202315         1.561480
 H        -0.324824         2.781825         0.527924
 H        -0.573525         2.495424         3.561138
 H        -1.069081         0.979733         3.991264
 H         1.259536         1.430533         2.290474
 H         0.696680        -0.192390         2.763252
