19
Iteration:  2251
 O         0.661058        -0.153956         0.182691
 C        -0.248765         0.560965         0.990233
 C        -1.629246        -0.026379         1.499239
 C        -1.791186         1.462988         1.950318
 C        -3.075505         2.126459         1.356170
 O        -2.436096         1.875931        -0.026075
 C        -1.083179         1.853964         0.612508
 C        -0.808042         1.619033         3.116403
 C         0.405393         1.018709         2.325128
 H         0.154449        -0.396871        -0.653666
 H        -2.489250        -0.315691         0.821983
 H        -1.429359        -0.831696         2.294025
 H        -3.954839         1.501364         1.625333
 H        -3.123077         3.158796         1.580465
 H        -0.515725         2.719021         0.303871
 H        -0.731140         2.682394         3.417969
 H        -1.222471         1.118241         4.031806
 H         1.416306         1.653523         2.079152
 H         0.898999         0.160840         2.707773
