19
Iteration:  3733
 O         0.456729        -0.100454         0.005015
 C        -0.311517         0.539453         1.014173
 C        -1.636377        -0.122535         1.519420
 C        -1.793999         1.404846         1.950477
 C        -2.950762         2.115212         1.239894
 O        -2.226371         2.016815        -0.026160
 C        -0.974441         1.858317         0.686214
 C        -0.938163         1.601854         3.160911
 C         0.331276         1.001370         2.446945
 H         0.253134        -1.030385        -0.291423
 H        -2.325242        -0.401223         0.689980
 H        -1.456252        -0.883532         2.278981
 H        -3.910610         1.662316         1.331494
 H        -2.937656         3.156028         1.632550
 H        -0.363053         2.713404         0.668712
 H        -0.662543         2.632206         3.305600
 H        -1.119043         1.087509         4.135252
 H         1.013805         1.833770         2.318333
 H         0.943488         0.182708         2.958568
