19
Iteration:  4008
 O         0.522597         0.001031        -0.034988
 C        -0.326013         0.534140         1.044958
 C        -1.748436        -0.023273         1.440728
 C        -1.857123         1.430980         1.951914
 C        -2.942010         2.132449         1.233346
 O        -2.196904         1.991657        -0.021341
 C        -0.893438         1.841536         0.703264
 C        -0.965128         1.560472         3.159660
 C         0.344918         0.849215         2.469303
 H         0.891568        -0.841469         0.376773
 H        -2.457059        -0.220139         0.623151
 H        -1.686899        -0.873424         2.147996
 H        -3.842920         1.616124         1.351851
 H        -2.907128         3.233358         1.663906
 H        -0.333067         2.882127         0.668609
 H        -0.801522         2.643044         3.509488
 H        -1.190459         0.962483         4.038540
 H         1.172365         1.368557         2.431667
 H         0.427302        -0.159574         2.951662
