19
Iteration:  2916charge 0 multiplicity 1
 O         0.724266        -0.198836         0.186693
 C        -0.373333         0.512757         0.984414
 C        -1.618904        -0.120956         1.558572
 C        -1.872079         1.450743         2.003544
 C        -3.093592         2.143450         1.278658
 O        -2.378906         1.982828        -0.002022
 C        -1.074165         1.825033         0.679557
 C        -0.810906         1.600945         3.139034
 C         0.396966         1.044190         2.226964
 H         0.588303         0.215669        -0.651110
 H        -2.223232        -0.487662         0.730254
 H        -1.576807        -0.813742         2.351260
 H        -4.239854         1.960109         1.246305
 H        -2.976503         3.293426         1.474893
 H        -0.384267         2.791382         0.441057
 H        -0.617125         2.679369         3.338319
 H        -0.965840         1.000491         4.073986
 H         1.169678         1.636043         1.872328
 H         0.886139         0.091970         2.638908
