19
Iteration:   630
 O         0.612143        -0.268272         0.114745
 C        -0.251174         0.547135         0.959211
 C        -1.615826        -0.023471         1.499270
 C        -1.803388         1.484688         1.954907
 C        -3.074321         2.040733         1.379471
 O        -2.432468         1.914380         0.026145
 C        -1.063742         1.846382         0.601560
 C        -0.887711         1.649929         3.108936
 C         0.461774         1.069237         2.341748
 H         1.307895         0.328357        -0.144466
 H        -2.301603        -0.438059         0.804501
 H        -1.573595        -0.696804         2.334587
 H        -3.954028         1.428591         1.317170
 H        -3.275528         3.091263         1.425561
 H        -0.575258         2.696186         0.265491
 H        -0.746180         2.729780         3.418675
 H        -1.155224         1.047810         3.993139
 H         1.104046         2.068877         2.146934
 H         0.938185         0.411369         2.955087
