19
Iteration:  3778
 O         0.632473        -0.184584         0.162380
 C        -0.349171         0.518119         0.934761
 C        -1.707215        -0.005264         1.431589
 C        -1.765785         1.478266         2.000948
 C        -3.009214         2.151822         1.293477
 O        -2.380946         2.040289        -0.042957
 C        -1.045473         1.935270         0.662981
 C        -0.830842         1.531043         3.137673
 C         0.358055         0.826827         2.358143
 H         1.492282        -0.146605         0.667501
 H        -2.475653        -0.216739         0.663107
 H        -1.790727        -0.665868         2.336564
 H        -3.921045         1.521438         1.225817
 H        -3.244930         3.198457         1.449432
 H        -0.437520         2.724027         0.563398
 H        -0.521377         2.563585         3.372262
 H        -1.179505         1.008929         4.049391
 H         1.158983         1.510727         1.956437
 H         0.921082        -0.029953         2.877772
