19
Iteration:   824
 O         0.532474        -0.034132         0.154706
 C        -0.348226         0.575766         1.029124
 C        -1.594437        -0.071750         1.662347
 C        -1.772778         1.532594         2.002507
 C        -3.063163         1.987186         1.220798
 O        -2.369445         1.819234        -0.079354
 C        -1.076809         1.819002         0.665122
 C        -0.743333         1.659577         3.089787
 C         0.449988         1.086711         2.297416
 H        -0.028213        -0.589431        -0.375621
 H        -2.309950        -0.366015         0.929201
 H        -1.520138        -0.783278         2.486790
 H        -3.960259         1.362603         1.226944
 H        -3.394943         3.004075         1.346339
 H        -0.320327         2.648671         0.494354
 H        -0.511361         2.650574         3.512564
 H        -0.944024         1.054152         3.926433
 H         1.212590         1.723650         1.937132
 H         0.789218         0.060495         2.619103
