19
Iteration:  1687charge 0 multiplicity 1
 O         0.483592        -0.161968         0.087244
 C        -0.272457         0.554655         0.984710
 C        -1.568792        -0.141116         1.640198
 C        -1.875429         1.369691         1.994164
 C        -2.972445         2.097584         1.202390
 O        -2.308938         1.896701        -0.073391
 C        -1.050443         1.841533         0.734018
 C        -0.885516         1.699536         3.168028
 C         0.434364         1.134890         2.326941
 H        -0.135877        -0.458506        -0.659560
 H        -2.193603        -0.536163         0.820708
 H        -1.453981        -0.836746         2.493207
 H        -4.014086         1.510544         1.238704
 H        -3.060368         3.152757         1.263090
 H        -0.692613         2.919683         0.697305
 H        -0.533479         2.688388         3.399992
 H        -0.880747         1.022114         4.052515
 H         1.109861         2.060059         1.986662
 H         1.182956         0.427946         2.793624
