19
Iteration:  3217
 O         0.571464        -0.281599         0.142628
 C        -0.232388         0.501665         1.020306
 C        -1.531765        -0.159816         1.511311
 C        -1.844361         1.359905         1.989544
 C        -3.112960         2.093570         1.305835
 O        -2.386276         2.102126        -0.022373
 C        -1.080586         1.858442         0.689491
 C        -0.819806         1.723036         3.077215
 C         0.393287         1.058039         2.339254
 H         0.506842        -0.176490        -0.793681
 H        -2.019075        -0.368272         0.538246
 H        -1.357214        -1.072489         2.112390
 H        -4.229224         1.666084         1.376023
 H        -3.154915         3.171050         1.468321
 H        -0.421234         2.722584         0.712451
 H        -0.812716         2.788527         3.120320
 H        -1.073201         1.251567         3.991695
 H         1.318273         1.719053         2.252271
 H         0.854450         0.339573         3.019342
