19
Iteration:  4104
 O         0.445409        -0.262381         0.051182
 C        -0.284137         0.590321         0.953806
 C        -1.652668         0.083888         1.492494
 C        -1.807737         1.499129         1.952243
 C        -3.009044         2.125284         1.224731
 O        -2.229862         2.047054        -0.082181
 C        -1.000471         1.974341         0.752044
 C        -0.897883         1.389516         3.141333
 C         0.368925         0.883344         2.495971
 H         1.444004        -0.182993         0.208266
 H        -2.321819        -0.256573         0.702651
 H        -1.563185        -0.646670         2.287475
 H        -3.863656         1.476252         0.945254
 H        -3.253077         3.078395         1.504902
 H        -0.486318         2.861555         0.816009
 H        -0.722054         2.378572         3.607405
 H        -1.304175         0.691864         3.900765
 H         1.026833         1.889240         2.290299
 H         0.822193        -0.001829         2.985932
