19
Iteration:   502
 O         0.542012        -0.280410         0.083585
 C        -0.175214         0.530924         0.963356
 C        -1.543279        -0.027713         1.437711
 C        -1.828101         1.423816         1.988042
 C        -3.017946         2.090699         1.312661
 O        -2.447782         1.840844         0.044493
 C        -1.053292         1.866376         0.664706
 C        -0.891941         1.628770         3.154941
 C         0.333950         1.193126         2.350523
 H         1.523608        -0.067446        -0.016050
 H        -2.224612        -0.331304         0.664630
 H        -1.390198        -0.838945         2.205024
 H        -4.070085         1.859857         1.306108
 H        -2.994633         3.223117         1.470548
 H        -0.686226         2.868084         0.444138
 H        -0.808979         2.724532         3.375645
 H        -0.942005         1.095027         4.060890
 H         1.017173         1.946896         2.060052
 H         1.003130         0.458786         2.829271
