19
Iteration:   543charge 0 multiplicity 1
 O         0.554047        -0.191996         0.103606
 C        -0.299002         0.541228         0.964988
 C        -1.561312        -0.075698         1.656832
 C        -1.823253         1.423838         1.973625
 C        -3.118396         1.907306         1.214401
 O        -2.353469         1.995130        -0.004712
 C        -1.048542         1.883362         0.673820
 C        -0.778891         1.742735         3.101637
 C         0.371268         0.996090         2.287880
 H         0.969160         0.477250        -0.418407
 H        -2.342367        -0.353731         0.962712
 H        -1.464396        -0.639555         2.570211
 H        -3.893284         1.139235         1.209053
 H        -3.557450         2.840338         1.540708
 H        -0.335508         2.830190         0.571590
 H        -0.579673         2.845319         3.223180
 H        -0.994606         1.401751         4.123018
 H         1.239000         1.747975         2.178364
 H         0.678934         0.218904         2.888263
