19
Iteration:  1376
 O         0.637219        -0.115772         0.078476
 C        -0.377471         0.470580         0.999470
 C        -1.641314        -0.102690         1.595307
 C        -1.823918         1.401303         1.968471
 C        -3.077750         2.018887         1.290508
 O        -2.360823         1.958945        -0.043840
 C        -1.122297         1.788581         0.667025
 C        -0.761406         1.799636         3.026627
 C         0.409376         1.021068         2.341827
 H         1.467142        -0.081056         0.526700
 H        -2.346168        -0.278444         0.760021
 H        -1.651151        -0.866834         2.357104
 H        -4.130761         1.604957         1.657337
 H        -3.304758         3.042489         1.626516
 H        -0.501088         2.702530         0.576577
 H        -0.644752         2.865990         3.116834
 H        -1.053389         1.360753         4.011039
 H         1.383834         1.544892         2.072215
 H         0.925759         0.233002         2.973064
