19
Iteration:  3213charge 0 multiplicity 1
 O         0.593556        -0.303794         0.137915
 C        -0.200287         0.483347         1.032358
 C        -1.513778        -0.140787         1.497226
 C        -1.840148         1.354167         2.000266
 C        -3.154001         2.097253         1.300950
 O        -2.392070         2.111227        -0.004114
 C        -1.088442         1.883937         0.706411
 C        -0.846267         1.716770         3.029137
 C         0.377674         1.058733         2.329243
 H         0.556209        -0.133202        -0.842788
 H        -2.030117        -0.497940         0.621349
 H        -1.438276        -0.979083         2.196068
 H        -4.087500         1.714275         1.400901
 H        -3.161898         3.140423         1.542638
 H        -0.366130         2.675574         0.641211
 H        -0.711618         2.896095         3.098128
 H        -1.034032         1.336380         4.091647
 H         1.244995         1.762968         2.297225
 H         0.818611         0.112136         2.981206
