19
Iteration:  4022
 O         0.577285         0.045629         0.049841
 C        -0.326101         0.460466         0.955888
 C        -1.709704        -0.171488         1.490332
 C        -1.811090         1.402384         1.950585
 C        -2.933328         2.220174         1.257396
 O        -2.232244         2.106877        -0.043145
 C        -1.021489         1.817753         0.707834
 C        -0.906720         1.577016         3.163255
 C         0.266163         0.774543         2.447281
 H         1.206086        -0.621245         0.311720
 H        -2.434287        -0.521559         0.693129
 H        -1.726892        -0.853559         2.376527
 H        -3.965508         1.855551         1.034721
 H        -3.077668         3.273486         1.488604
 H        -0.213226         2.605317         0.534422
 H        -0.654832         2.632936         3.322939
 H        -1.366923         1.216964         4.077499
 H         1.171444         1.501045         2.295529
 H         0.682725        -0.099180         2.992803
