19
Iteration:  2607charge 0 multiplicity 1
 O         0.585910        -0.158149         0.008221
 C        -0.218207         0.518575         0.977294
 C        -1.587740        -0.061411         1.531477
 C        -1.846587         1.445418         1.971897
 C        -3.046544         2.065482         1.265250
 O        -2.359022         2.021404         0.023905
 C        -1.026462         1.756879         0.709195
 C        -0.836288         1.739790         3.093488
 C         0.382073         0.988840         2.442174
 H        -0.046188        -0.710549        -0.471948
 H        -2.296301        -0.251316         0.716144
 H        -1.621797        -0.893382         2.184482
 H        -4.048052         1.436684         1.304237
 H        -3.367306         3.016655         1.565599
 H        -0.551759         2.753261         0.702987
 H        -0.696720         2.833565         3.115265
 H        -1.063890         1.304224         4.053052
 H         1.261986         1.614536         2.404020
 H         0.798310         0.036044         2.933456
