19
Iteration:   925charge 0 multiplicity 1
 O         0.575445        -0.109435         0.109685
 C        -0.328424         0.515885         0.970303
 C        -1.669241        -0.027284         1.682571
 C        -1.811864         1.482788         2.003026
 C        -3.153508         1.899891         1.240700
 O        -2.425390         1.959253         0.009058
 C        -1.021109         1.760908         0.583413
 C        -0.722609         1.710600         3.141163
 C         0.455165         1.135735         2.237051
 H         0.989615        -0.723248         0.745962
 H        -2.298096        -0.388692         0.848794
 H        -1.489979        -0.761812         2.386937
 H        -3.887304         1.085940         1.301822
 H        -3.529109         2.880385         1.397388
 H        -0.442707         2.679870         0.215828
 H        -0.376275         2.772006         3.243182
 H        -0.853572         1.162694         4.082209
 H         1.164549         1.936414         1.880782
 H         1.166758         0.412148         2.608920
