19
Iteration:  2170charge 0 multiplicity 1
 O         0.507444        -0.151424         0.114963
 C        -0.222922         0.533843         0.973438
 C        -1.570856        -0.025425         1.584818
 C        -1.843775         1.441068         1.955602
 C        -3.042986         2.092711         1.269011
 O        -2.329367         1.833952        -0.014558
 C        -1.068222         1.891087         0.664136
 C        -0.842972         1.622885         3.160139
 C         0.448054         1.077287         2.312419
 H         0.102604        -0.260799        -0.748358
 H        -2.159921        -0.519309         0.822467
 H        -1.455157        -0.739926         2.386251
 H        -3.943570         1.611431         1.409291
 H        -3.226943         3.152135         1.350744
 H        -0.620013         2.785838         0.533450
 H        -0.648806         2.647501         3.480896
 H        -1.287328         1.038379         3.962996
 H         1.103479         1.994098         2.181456
 H         0.848848         0.155619         2.892859
