19
Iteration:   736
 O         0.642231        -0.122683         0.072562
 C        -0.331845         0.565629         0.997234
 C        -1.647298        -0.006238         1.634587
 C        -1.846458         1.496355         1.981094
 C        -3.105599         2.129663         1.248398
 O        -2.370018         1.784767        -0.003714
 C        -1.099797         1.805591         0.749459
 C        -0.812438         1.630839         3.092620
 C         0.454995         1.038070         2.193972
 H         1.442587        -0.175560         0.553036
 H        -2.410418        -0.261982         0.948239
 H        -1.374156        -0.519383         2.558543
 H        -4.087579         1.584889         1.177892
 H        -3.338831         3.232142         1.227275
 H        -0.704017         2.937175         0.598550
 H        -0.677376         2.605252         3.577758
 H        -0.918148         0.850172         3.821665
 H         1.318437         1.533337         1.828928
 H         0.885015         0.088209         2.745597
