19
Iteration:  4877
 O         0.473280        -0.114478         0.074250
 C        -0.282708         0.523171         0.986154
 C        -1.650441        -0.163453         1.581456
 C        -1.889278         1.365733         1.898474
 C        -2.959254         2.113166         1.187623
 O        -2.147202         2.166158        -0.002547
 C        -0.949624         1.924667         0.742010
 C        -0.912316         1.589917         3.133501
 C         0.324712         0.866362         2.407982
 H        -0.147464        -0.540844        -0.495282
 H        -2.293494        -0.586998         0.790541
 H        -1.662160        -0.759753         2.443091
 H        -3.951224         1.679170         1.065672
 H        -3.050314         3.092257         1.598531
 H        -0.382819         2.808444         0.922770
 H        -0.698826         2.700840         3.123306
 H        -1.272378         1.020459         4.048937
 H         1.107244         1.563035         2.205227
 H         0.803421        -0.039357         2.814683
