19
Iteration:  4401
 O         0.524228        -0.062299         0.042345
 C        -0.195265         0.557774         1.087917
 C        -1.654365         0.101087         1.486662
 C        -1.813120         1.459528         1.860622
 C        -3.077739         2.182851         1.198334
 O        -2.384830         2.045979        -0.062047
 C        -0.950758         1.865290         0.707009
 C        -0.887108         1.527157         3.162240
 C         0.406522         0.664079         2.501529
 H         0.753600        -0.897085         0.426946
 H        -2.268763        -0.065797         0.630067
 H        -1.534871        -0.695576         2.194063
 H        -3.950441         1.471991         1.224035
 H        -3.107673         3.244241         1.442332
 H        -0.322144         2.933128         0.672780
 H        -0.522602         2.581036         3.284064
 H        -1.180163         0.940431         4.008891
 H         1.346563         1.217596         2.572933
 H         0.449149        -0.360140         2.712540
