19
Iteration:  1591charge 0 multiplicity 1
 O         0.578581        -0.175238         0.057066
 C        -0.269820         0.540975         0.980628
 C        -1.573738        -0.104615         1.552316
 C        -1.865426         1.466072         1.986332
 C        -3.015938         2.051195         1.321849
 O        -2.319744         1.868671        -0.034743
 C        -1.066904         1.837078         0.704673
 C        -0.833809         1.773533         3.071964
 C         0.377032         1.015475         2.397950
 H        -0.054347        -0.616739        -0.631544
 H        -2.198021        -0.345828         0.650476
 H        -1.431324        -0.834926         2.408558
 H        -4.035060         1.711128         1.398343
 H        -3.059044         3.265250         1.547470
 H        -0.607092         2.811368         0.649701
 H        -0.786063         2.890354         3.020681
 H        -1.162797         1.267598         3.947277
 H         1.040449         1.827655         2.237563
 H         0.974831         0.356427         3.137211
