19
Iteration:  3090
 O         0.634595        -0.170410         0.155056
 C        -0.244421         0.527223         1.002874
 C        -1.654893         0.007493         1.577311
 C        -1.900591         1.401521         1.963633
 C        -3.113512         1.995412         1.267906
 O        -2.312696         2.039963         0.032532
 C        -1.060448         1.815859         0.710068
 C        -0.762947         1.691454         3.029288
 C         0.396523         0.962459         2.259870
 H         0.443222        -0.284452        -0.797759
 H        -2.433603        -0.167789         0.799425
 H        -1.828149        -0.662643         2.438924
 H        -3.918140         1.359603         1.278678
 H        -3.417476         2.989906         1.494771
 H        -0.501001         2.645322         0.743909
 H        -0.692689         2.795870         3.242070
 H        -0.887637         1.209887         4.069993
 H         1.174160         1.696911         2.010804
 H         0.834386         0.078588         2.901578
