19
Iteration:  1887charge 0 multiplicity 1
 O         0.713496        -0.047103         0.187034
 C        -0.298270         0.507897         0.971465
 C        -1.651468        -0.093718         1.576137
 C        -1.855135         1.374949         2.015000
 C        -3.082982         2.130502         1.202690
 O        -2.412899         1.896287        -0.004778
 C        -1.119032         1.782589         0.689645
 C        -0.723562         1.708171         3.070776
 C         0.391278         1.011009         2.276720
 H         0.278275        -0.163249        -0.630842
 H        -2.395645        -0.633667         0.886276
 H        -1.518064        -0.852927         2.435246
 H        -4.184317         1.792341         1.528699
 H        -2.969619         3.145199         1.613487
 H        -0.366316         2.617852         0.440357
 H        -0.554716         2.754898         3.320629
 H        -1.014198         1.261860         4.032724
 H         1.170478         1.715869         2.052707
 H         0.652013         0.108304         2.689243
