19
Iteration:   164
 O         0.480482        -0.273796         0.069809
 C        -0.161548         0.575841         0.995443
 C        -1.389570        -0.097542         1.576782
 C        -1.818808         1.493551         1.972997
 C        -3.178804         2.019972         1.221213
 O        -2.455225         1.867162         0.041934
 C        -1.155690         1.826488         0.701999
 C        -0.823172         1.713697         3.071376
 C         0.413475         1.166372         2.324622
 H         1.458195        -0.139757        -0.000903
 H        -2.022800        -0.519318         0.750727
 H        -1.122020        -0.683936         2.409192
 H        -4.058440         1.382127         1.274071
 H        -3.308750         3.135367         1.454913
 H        -0.594609         2.809995         0.446290
 H        -0.538857         2.829725         3.290866
 H        -1.096888         1.219706         4.005436
 H         1.093242         1.993571         2.110674
 H         0.977637         0.479158         3.007738
