19
Iteration:   318
 O         0.552827        -0.228495         0.119889
 C        -0.267882         0.558058         0.929103
 C        -1.463692        -0.086487         1.542575
 C        -1.822933         1.356974         1.973310
 C        -3.052092         1.984325         1.320043
 O        -2.432476         1.944010        -0.021435
 C        -1.114117         1.872888         0.683175
 C        -0.829739         1.776468         3.028224
 C         0.340743         1.100457         2.339244
 H         1.496614         0.046545         0.309099
 H        -2.276136        -0.580908         1.033803
 H        -1.251444        -0.863237         2.293989
 H        -4.059271         1.608034         1.464917
 H        -3.095562         3.044537         1.638023
 H        -0.548902         2.850434         0.433060
 H        -0.712507         2.887281         3.064271
 H        -0.935947         1.442504         4.071325
 H         1.254653         1.669230         2.359387
 H         0.544850         0.080273         2.873076
