19
Iteration:  3869charge 0 multiplicity 1
 O         0.572173        -0.047819        -0.006648
 C        -0.328675         0.505133         1.016514
 C        -1.683202         0.035604         1.547962
 C        -1.806289         1.542164         1.985984
 C        -2.989254         2.120920         1.214100
 O        -2.225791         1.994669        -0.087489
 C        -1.007571         1.864927         0.717451
 C        -0.916173         1.482577         3.264583
 C         0.340165         0.844605         2.339908
 H         0.726091        -0.949724         0.255248
 H        -2.482442         0.037253         0.780857
 H        -1.910037        -0.753683         2.313956
 H        -3.864530         1.339229         1.154697
 H        -3.196670         3.140978         1.450958
 H        -0.328521         2.635422         0.553772
 H        -0.714317         2.510154         3.646969
 H        -1.181823         0.841750         4.103514
 H         1.172649         1.642435         2.203173
 H         0.768316         0.055871         2.907653
