19
Iteration:  2391
 O         0.713612        -0.095128         0.173345
 C        -0.384982         0.463198         0.911914
 C        -1.656861        -0.045549         1.613223
 C        -1.837821         1.398791         2.025168
 C        -2.962998         2.248349         1.260807
 O        -2.405466         1.887300        -0.001977
 C        -1.102280         1.778418         0.593797
 C        -0.821140         1.546612         3.200554
 C         0.399214         1.089365         2.258049
 H         0.483020        -0.498515        -0.690040
 H        -2.383329        -0.260168         0.787929
 H        -1.550469        -0.868077         2.353755
 H        -3.856844         1.669273         1.312507
 H        -3.046124         3.401899         1.457012
 H        -0.632559         2.884914         0.401378
 H        -0.722105         2.577496         3.621736
 H        -1.055623         0.786871         4.015446
 H         1.038255         1.905204         1.946300
 H         1.033893         0.363986         2.607512
