19
Iteration:  4121charge 0 multiplicity 1
 O         0.449764        -0.163125         0.096701
 C        -0.320719         0.518087         1.011880
 C        -1.623175        -0.089283         1.493265
 C        -1.878320         1.469671         1.965374
 C        -2.999494         2.139595         1.162157
 O        -2.171730         2.084905        -0.048707
 C        -0.983597         1.893452         0.778228
 C        -0.909081         1.539427         3.213514
 C         0.327863         0.866947         2.325812
 H         1.274455         0.374403        -0.080543
 H        -2.332922        -0.416740         0.728638
 H        -1.555049        -0.903684         2.257278
 H        -3.997502         1.599679         1.099087
 H        -3.064111         3.315646         1.348740
 H        -0.343724         2.884681         0.776418
 H        -0.631428         2.514420         3.614184
 H        -1.121791         0.899658         4.088160
 H         1.150454         1.453993         2.202476
 H         0.641903        -0.132903         2.704127
