19
Iteration:  2553
 O         0.658827        -0.184298         0.109454
 C        -0.312246         0.450438         0.994496
 C        -1.632012        -0.034025         1.543545
 C        -1.841975         1.542310         1.987145
 C        -3.115363         2.088723         1.290469
 O        -2.341521         1.933821        -0.037045
 C        -1.053053         1.878491         0.693994
 C        -0.792119         1.637553         3.171701
 C         0.400853         1.001961         2.310712
 H         0.271937        -0.125022        -0.819818
 H        -2.354240        -0.200193         0.742991
 H        -1.652474        -0.761725         2.321841
 H        -3.983928         1.318819         1.292013
 H        -3.300301         3.089016         1.534589
 H        -0.524346         2.764287         0.476166
 H        -0.702258         2.725209         3.464091
 H        -0.962683         0.981918         4.027590
 H         1.105288         1.760254         1.929244
 H         1.016024         0.059314         2.883832
