19
Iteration:  3347
 O         0.589185        -0.207474         0.248127
 C        -0.306410         0.521318         1.052766
 C        -1.574182        -0.073111         1.613545
 C        -1.834756         1.442948         1.870017
 C        -3.098058         2.044250         1.268359
 O        -2.398051         2.105587        -0.014655
 C        -0.994069         1.868517         0.666194
 C        -0.814226         1.540441         3.040162
 C         0.394740         1.073967         2.224593
 H         0.581448        -0.220189        -0.678389
 H        -2.255909        -0.509621         0.872289
 H        -1.541392        -0.643488         2.518612
 H        -3.850110         1.276639         1.177470
 H        -3.464917         2.988591         1.680319
 H        -0.406468         2.761385         0.650611
 H        -0.619338         2.549420         3.623191
 H        -0.967583         0.837753         3.887621
 H         1.160282         1.869573         1.953890
 H         0.862304         0.096285         2.665900
