19
Iteration:  4360
 O         0.535466        -0.115871         0.089890
 C        -0.318212         0.468900         0.933500
 C        -1.729221        -0.074148         1.448017
 C        -1.891238         1.366926         1.960450
 C        -2.938125         2.098512         1.295049
 O        -2.167374         2.168033         0.057665
 C        -0.933893         1.823403         0.736105
 C        -0.971704         1.541366         3.095660
 C         0.357089         0.983679         2.305880
 H         0.736465        -1.018343         0.521989
 H        -2.458458        -0.249751         0.627595
 H        -1.821618        -0.887588         2.185791
 H        -4.041902         1.701570         1.037803
 H        -2.916373         3.127971         1.749080
 H        -0.049605         2.658468         0.802008
 H        -0.887677         2.585583         3.324332
 H        -1.365685         0.979586         3.972237
 H         0.897721         1.931726         2.078107
 H         0.960005         0.230580         2.951321
