19
Iteration:  1161charge 0 multiplicity 1
 O         0.479748        -0.136952         0.042581
 C        -0.274422         0.516935         0.998330
 C        -1.566466        -0.017845         1.609835
 C        -1.763478         1.410566         1.956959
 C        -3.062614         1.931802         1.292272
 O        -2.380425         1.885782        -0.011669
 C        -1.076952         1.890993         0.638204
 C        -0.832650         1.748099         3.031067
 C         0.417999         1.098120         2.350595
 H         1.013857        -0.796176         0.512906
 H        -2.229369        -0.504047         0.820880
 H        -1.380301        -0.794253         2.379125
 H        -3.973937         1.376854         1.241228
 H        -3.131875         2.993563         1.645418
 H        -0.583396         2.955802         0.701697
 H        -0.713629         2.866387         3.206800
 H        -1.020956         1.350596         4.084478
 H         1.314451         1.726908         2.234147
 H         0.846064         0.289724         3.052508
