19
Iteration:  2720charge 0 multiplicity 1
 O         0.549523        -0.095023         0.071833
 C        -0.242892         0.487295         1.004756
 C        -1.565815        -0.041294         1.583366
 C        -1.864386         1.422464         1.980137
 C        -3.103273         1.998406         1.206968
 O        -2.302899         2.058953        -0.039839
 C        -1.081864         1.871375         0.809740
 C        -0.803439         1.726538         3.018891
 C         0.398614         0.889976         2.393995
 H         0.114283        -0.769288        -0.541470
 H        -2.257159        -0.326998         0.770403
 H        -1.555848        -0.814904         2.412572
 H        -3.971950         1.197936         1.227932
 H        -3.357849         2.994864         1.435052
 H        -0.575285         2.823965         0.899712
 H        -0.598982         2.790246         2.830496
 H        -0.835976         1.430282         4.070824
 H         1.385094         1.481845         2.277874
 H         0.701309        -0.088788         3.041653
