19
Iteration:  3255
 O         0.642511        -0.068590         0.097832
 C        -0.339940         0.541513         0.949073
 C        -1.660003         0.021973         1.652956
 C        -1.836338         1.569601         1.977513
 C        -3.081300         2.114373         1.250703
 O        -2.276092         1.823378        -0.019433
 C        -1.005570         1.829694         0.677940
 C        -0.836395         1.533733         3.146126
 C         0.392814         0.977149         2.294125
 H         0.007464        -0.569560        -0.540666
 H        -2.418088        -0.220674         0.904195
 H        -1.634129        -0.843853         2.319047
 H        -3.954780         1.506134         1.224298
 H        -3.362987         3.277887         1.399983
 H        -0.486081         2.879164         0.432051
 H        -0.597842         2.494456         3.738906
 H        -1.075502         0.850698         4.023673
 H         1.003244         1.720926         1.902772
 H         0.900184         0.164030         2.873037
