19
Iteration:  2121
 O         0.676533        -0.022134         0.150495
 C        -0.306966         0.509407         1.023844
 C        -1.655018        -0.030102         1.586667
 C        -1.779147         1.453504         1.996496
 C        -3.001591         2.081596         1.310835
 O        -2.423794         1.864327        -0.038967
 C        -1.089774         1.779482         0.649025
 C        -0.797084         1.691680         3.025006
 C         0.381772         0.952733         2.343147
 H         0.282206        -0.369678        -0.706630
 H        -2.356540        -0.395363         0.806793
 H        -1.624651        -0.800448         2.407609
 H        -4.119529         1.693594         1.322021
 H        -3.218091         3.175533         1.548743
 H        -0.394753         2.725326         0.537018
 H        -0.528108         2.760646         3.181262
 H        -1.054706         1.237797         4.000313
 H         1.146469         1.597298         2.059444
 H         0.636564         0.031344         2.754727
