19
Iteration:  1024
 O         0.635386        -0.120909         0.059943
 C        -0.313164         0.511933         0.935333
 C        -1.573588        -0.003623         1.676475
 C        -1.799142         1.479875         2.037743
 C        -3.139836         1.907085         1.303930
 O        -2.450600         1.904942        -0.098367
 C        -1.121127         1.783800         0.654587
 C        -0.683392         1.825600         3.098911
 C         0.393647         1.040710         2.249966
 H         1.086465        -0.717952         0.751090
 H        -2.360373        -0.334754         1.023889
 H        -1.554456        -0.679456         2.506491
 H        -4.066117         1.247769         1.332906
 H        -3.502364         2.936832         1.473727
 H        -0.620406         2.758231         0.439500
 H        -0.603413         2.886229         3.433019
 H        -0.879317         1.209153         4.000658
 H         1.320267         1.751185         2.214416
 H         0.893683         0.246044         2.854591
