19
Iteration:   272
 O         0.516969        -0.098674        -0.075903
 C        -0.318338         0.518842         0.996692
 C        -1.633774         0.017947         1.657157
 C        -1.812196         1.522665         2.024506
 C        -3.059402         1.949684         1.226242
 O        -2.342798         1.796021        -0.023425
 C        -1.025205         1.774094         0.669928
 C        -0.802772         1.696533         3.163818
 C         0.437455         1.155482         2.342663
 H         1.235094        -0.656235         0.371696
 H        -2.349062        -0.326871         0.869444
 H        -1.680446        -0.758820         2.352870
 H        -3.912168         1.310288         1.190695
 H        -3.448412         2.933936         1.457870
 H        -0.526950         2.766806         0.643866
 H        -0.739687         2.711350         3.637951
 H        -1.046495         1.042971         3.938116
 H         1.022781         2.028843         2.019675
 H         1.061267         0.556117         3.036516
