19
Iteration:  3330charge 0 multiplicity 1
 O         0.677504        -0.212746         0.189990
 C        -0.300996         0.454825         0.980663
 C        -1.639117        -0.080551         1.564576
 C        -1.852168         1.402697         1.990392
 C        -3.083937         1.996264         1.302744
 O        -2.337029         2.164364        -0.009692
 C        -1.120481         1.791396         0.656763
 C        -0.793415         1.699047         3.083288
 C         0.434673         1.004761         2.284936
 H         0.407128         0.048721        -0.663807
 H        -2.395582        -0.406929         0.806718
 H        -1.581251        -0.901747         2.340121
 H        -4.064045         1.391216         1.097492
 H        -3.480177         3.047017         1.501182
 H        -0.437183         2.711974         0.508416
 H        -0.726594         2.716290         3.166468
 H        -1.163986         1.183022         3.979305
 H         1.131618         1.846254         2.100560
 H         0.968830         0.307362         2.837112
