19
Iteration:  4966charge 0 multiplicity 1
 O         0.617268        -0.171822         0.101843
 C        -0.262351         0.508110         0.980311
 C        -1.678840        -0.123931         1.449023
 C        -1.941716         1.337518         1.945674
 C        -3.029583         2.286488         1.231573
 O        -2.220750         2.107630        -0.050324
 C        -1.034773         1.911450         0.839501
 C        -0.892241         1.534207         3.084275
 C         0.400591         0.852631         2.439437
 H         0.180569        -0.635902        -0.604877
 H        -2.389063        -0.244660         0.663839
 H        -1.629823        -0.777878         2.306874
 H        -4.037310         1.959824         1.155923
 H        -3.048624         3.321068         1.338689
 H        -0.507886         2.892155         1.054423
 H        -0.701475         2.680711         3.243279
 H        -1.012032         0.967653         4.069922
 H         1.125233         1.604640         2.234477
 H         0.784246        -0.026680         2.986917
