19
Iteration:  3883
 O         0.569626        -0.106647         0.026483
 C        -0.278402         0.541835         0.953970
 C        -1.708701         0.034371         1.473314
 C        -1.832369         1.513980         1.988975
 C        -3.022924         2.158778         1.236272
 O        -2.279370         1.985996         0.005952
 C        -0.972892         1.859589         0.668045
 C        -0.853632         1.525037         3.159575
 C         0.315345         0.841874         2.439383
 H         1.305103        -0.602400         0.515174
 H        -2.299859        -0.387813         0.646892
 H        -1.610366        -0.732112         2.205721
 H        -4.070947         1.653636         1.288070
 H        -3.273095         3.282460         1.342841
 H        -0.373235         2.861287         0.514751
 H        -0.577339         2.411302         3.679617
 H        -1.299066         0.820391         3.934315
 H         1.156119         1.425727         2.426174
 H         0.476359        -0.109075         2.797749
