19
Iteration:  4534
 O         0.530889         0.007266         0.081437
 C        -0.310704         0.496849         1.019013
 C        -1.664770        -0.008616         1.477487
 C        -1.870436         1.362992         1.946609
 C        -2.963549         2.274003         1.229350
 O        -2.279025         2.012540        -0.071081
 C        -1.067323         1.854730         0.696511
 C        -0.771940         1.510032         3.198145
 C         0.322722         0.762972         2.419721
 H         0.853609        -0.791169         0.490245
 H        -2.257627        -0.123596         0.564227
 H        -1.740011        -0.860168         2.052779
 H        -4.016527         1.923938         1.048036
 H        -2.882475         3.325004         1.507084
 H        -0.469916         2.846989         0.643129
 H        -0.411369         2.483586         3.283131
 H        -1.148164         1.055242         4.080373
 H         1.238356         1.315103         2.319201
 H         0.548627        -0.129691         2.911606
