19
Iteration:  1249charge 0 multiplicity 1
 O         0.610949        -0.232594         0.079996
 C        -0.257028         0.533641         0.947484
 C        -1.596056         0.002410         1.557248
 C        -1.799909         1.469108         1.960629
 C        -3.059073         2.008628         1.372068
 O        -2.479780         1.843882        -0.049241
 C        -1.085654         1.848171         0.637468
 C        -0.827504         1.763340         3.068496
 C         0.419397         1.044962         2.443968
 H         1.235948         0.279988        -0.479559
 H        -2.196619        -0.455347         0.760997
 H        -1.449914        -0.730741         2.408341
 H        -3.863887         1.368596         1.339694
 H        -3.253274         3.092918         1.498962
 H        -0.537076         2.854191         0.571477
 H        -0.594445         2.903303         3.067725
 H        -1.001132         1.482137         4.164251
 H         1.335478         1.722061         2.321384
 H         0.523258         0.040122         2.916455
