19
Iteration:  3797
 O         0.583044        -0.202287         0.173074
 C        -0.299255         0.452753         0.979371
 C        -1.673828        -0.021456         1.465577
 C        -1.817462         1.490491         1.924290
 C        -3.047725         2.121813         1.332641
 O        -2.303042         2.093756         0.023634
 C        -0.984349         1.813695         0.639553
 C        -0.837527         1.580303         3.097230
 C         0.297424         0.939229         2.323456
 H         1.298620         0.428231        -0.042491
 H        -2.316959        -0.242280         0.603402
 H        -1.660279        -0.865741         2.098260
 H        -3.885251         1.547000         1.294137
 H        -3.206912         3.186532         1.648635
 H        -0.405349         2.798407         0.422618
 H        -0.638266         2.561157         3.466993
 H        -1.258766         0.963467         3.944454
 H         1.270056         1.421708         2.388841
 H         0.508560        -0.192093         2.794666
