19
Iteration:  2712charge 0 multiplicity 1
 O         0.558848        -0.104127         0.085341
 C        -0.277651         0.546942         1.011140
 C        -1.582700        -0.103879         1.567344
 C        -1.860648         1.381038         2.006559
 C        -3.073536         2.018306         1.216822
 O        -2.305374         2.051164        -0.021491
 C        -1.083854         1.864250         0.724955
 C        -0.731813         1.711598         3.025725
 C         0.392417         0.930611         2.394025
 H        -0.085410        -0.705803        -0.380747
 H        -2.208416        -0.355002         0.661872
 H        -1.548547        -0.909210         2.357029
 H        -3.810635         1.356889         0.961003
 H        -3.473147         2.998194         1.628982
 H        -0.634927         2.800155         0.825689
 H        -0.638882         2.818411         2.971884
 H        -0.985993         1.561735         4.096746
 H         1.419821         1.457727         2.400879
 H         0.365577         0.034437         3.007132
