19
Iteration:  3924
 O         0.669077        -0.258922         0.171279
 C        -0.300447         0.501875         0.949057
 C        -1.670419        -0.104915         1.336517
 C        -1.885689         1.356264         1.948715
 C        -2.993722         2.217609         1.290383
 O        -2.300865         2.150590         0.019778
 C        -1.046695         1.803924         0.729419
 C        -0.868271         1.600898         3.118225
 C         0.309608         0.950444         2.412818
 H         0.929362         0.330303        -0.529679
 H        -2.414711        -0.138436         0.502970
 H        -1.719100        -0.936046         2.068837
 H        -4.094521         1.882802         1.184396
 H        -3.054257         3.132957         1.808537
 H        -0.442176         2.640369         0.752397
 H        -0.747160         2.689215         3.220092
 H        -1.011400         1.088122         4.074113
 H         1.379888         1.514571         2.393168
 H         0.586481         0.003862         2.960125
