19
Iteration:  3714
 O         0.532361        -0.103308        -0.015099
 C        -0.307845         0.459170         0.988188
 C        -1.659123        -0.051175         1.584338
 C        -1.867391         1.438647         1.988418
 C        -2.992262         2.087912         1.226362
 O        -2.168357         2.016751        -0.045560
 C        -0.996382         1.815952         0.789169
 C        -0.870555         1.629521         3.176007
 C         0.360566         0.986756         2.364151
 H        -0.162589        -0.462031        -0.669104
 H        -2.439072        -0.325348         0.843957
 H        -1.585871        -0.772869         2.465483
 H        -3.986310         1.418296         1.042373
 H        -3.276797         3.108357         1.538376
 H        -0.330551         2.880457         0.677234
 H        -0.878858         2.690183         3.523764
 H        -1.225607         0.983046         3.975853
 H         1.217660         1.664845         2.178866
 H         0.685776         0.192340         2.903569
