19
Iteration:   364
 O         0.639793        -0.132079         0.238593
 C        -0.318750         0.586659         0.989521
 C        -1.648512        -0.093623         1.570370
 C        -1.826339         1.469510         2.004330
 C        -3.031340         2.048311         1.286511
 O        -2.422366         1.861780        -0.073064
 C        -1.087795         1.817432         0.587743
 C        -0.756302         1.631559         3.154387
 C         0.399896         1.114646         2.259626
 H         0.586578         0.070655        -0.694501
 H        -2.264915        -0.571119         0.845164
 H        -1.628308        -0.792361         2.445493
 H        -4.032841         1.528617         1.328251
 H        -3.251835         3.105712         1.476568
 H        -0.516545         2.835613         0.445469
 H        -0.556286         2.604799         3.576637
 H        -0.910937         0.903649         4.020026
 H         1.114590         1.822030         1.870323
 H         1.044083         0.311171         2.724152
