19
Iteration:  2394charge 0 multiplicity 1
 O         0.704431        -0.081405         0.159493
 C        -0.404109         0.454416         0.920891
 C        -1.663979        -0.048135         1.608906
 C        -1.828677         1.407531         2.022215
 C        -2.940749         2.238924         1.274751
 O        -2.389118         1.882211        -0.013795
 C        -1.097283         1.766120         0.610918
 C        -0.819969         1.556906         3.220934
 C         0.383087         1.101346         2.260966
 H         0.485895        -0.459548        -0.762923
 H        -2.371884        -0.283295         0.742158
 H        -1.570701        -0.877272         2.408753
 H        -3.990692         1.737224         1.274672
 H        -3.097384         3.354532         1.437891
 H        -0.586281         2.709673         0.411574
 H        -0.739181         2.598148         3.594942
 H        -1.081305         0.728579         3.961761
 H         1.104347         1.986465         1.860325
 H         1.098853         0.356071         2.623721
