19
Iteration:   320charge 0 multiplicity 1
 O         0.564326        -0.239970         0.116944
 C        -0.251146         0.577463         0.925898
 C        -1.478077        -0.088944         1.527571
 C        -1.829960         1.351211         1.979222
 C        -3.056809         1.987544         1.330838
 O        -2.432615         1.941790        -0.006051
 C        -1.107313         1.865404         0.661254
 C        -0.838342         1.781165         3.029945
 C         0.349380         1.096298         2.339789
 H         1.477228         0.013028         0.218808
 H        -2.269958        -0.570182         1.005154
 H        -1.298950        -0.855852         2.357614
 H        -4.120530         1.602496         1.474948
 H        -3.045001         3.085092         1.628416
 H        -0.530741         2.870562         0.392226
 H        -0.772830         2.869015         3.050562
 H        -0.927520         1.468228         4.142606
 H         1.232524         1.720054         2.431723
 H         0.522260         0.110763         2.893564
