19
Iteration:   314charge 0 multiplicity 1
 O         0.540765        -0.200105         0.127178
 C        -0.301436         0.529114         0.938364
 C        -1.449501        -0.090279         1.578901
 C        -1.814826         1.380579         1.961265
 C        -3.037724         1.986831         1.301725
 O        -2.431049         1.944296        -0.045587
 C        -1.123518         1.881091         0.708650
 C        -0.813249         1.777937         3.027168
 C         0.335748         1.081569         2.339127
 H         1.417319         0.069878         0.432041
 H        -2.280873        -0.554443         0.960770
 H        -1.120666        -0.863314         2.258102
 H        -4.012730         1.512139         1.392676
 H        -3.201153         3.002026         1.661390
 H        -0.614481         2.766415         0.599609
 H        -0.610468         2.862862         3.087467
 H        -0.997498         1.352145         3.988145
 H         1.335448         1.603926         2.165582
 H         0.608219         0.166657         2.791857
