19
Iteration:   483
 O         0.626179        -0.146838         0.137299
 C        -0.351178         0.515497         0.970072
 C        -1.653836        -0.067619         1.606615
 C        -1.804839         1.470185         1.949843
 C        -3.037656         2.128852         1.330345
 O        -2.352804         1.858557        -0.032794
 C        -1.111309         1.804366         0.631748
 C        -0.852883         1.583336         3.125990
 C         0.425146         1.143116         2.191931
 H         1.475842         0.227278         0.457585
 H        -2.411444        -0.384783         0.898437
 H        -1.729533        -0.875520         2.384455
 H        -3.973530         1.565610         1.584471
 H        -3.220881         3.229076         1.503796
 H        -0.508399         2.642843         0.475052
 H        -0.654381         2.519381         3.625111
 H        -1.140538         0.744819         3.832550
 H         1.069182         1.998127         1.998265
 H         1.188325         0.398782         2.793997
