19
Iteration:  1596charge 0 multiplicity 1
 O         0.585969        -0.168358         0.083451
 C        -0.229683         0.556818         0.955236
 C        -1.586192        -0.085598         1.536797
 C        -1.871278         1.429895         1.989270
 C        -3.034801         2.070058         1.312301
 O        -2.336445         1.872154        -0.040941
 C        -1.105782         1.844217         0.686892
 C        -0.845812         1.769730         3.051302
 C         0.390919         1.010666         2.411069
 H         0.168541        -0.666780        -0.579433
 H        -2.371291        -0.362051         0.841852
 H        -1.537707        -0.762774         2.363759
 H        -4.044825         1.631623         1.553377
 H        -2.913982         3.085287         1.547877
 H        -0.518734         2.825915         0.742995
 H        -0.580069         2.852155         3.002829
 H        -0.998955         1.365958         4.127429
 H         1.266458         1.740102         2.235433
 H         0.765394         0.266820         3.077219
