19
Iteration:   596
 O         0.449952        -0.188779         0.131574
 C        -0.200408         0.664085         1.003044
 C        -1.481569        -0.092954         1.503889
 C        -1.865383         1.398874         1.963925
 C        -2.991910         2.105783         1.281181
 O        -2.395343         1.804008        -0.032749
 C        -1.113810         1.844820         0.666316
 C        -0.888197         1.648060         3.104519
 C         0.444712         1.054625         2.375712
 H         0.778739         0.323848        -0.585685
 H        -2.202490        -0.506094         0.809283
 H        -1.123129        -0.697413         2.300736
 H        -4.062169         1.884611         1.485910
 H        -2.909667         3.184752         1.426567
 H        -0.695516         2.789139         0.537093
 H        -0.727487         2.752076         3.243753
 H        -1.207758         1.196350         4.078960
 H         1.331667         1.848648         2.338222
 H         0.929437         0.278410         2.912240
