19
Iteration:  3392charge 0 multiplicity 1
 O         0.565830        -0.073504         0.061697
 C        -0.201951         0.557405         1.007776
 C        -1.676173        -0.057577         1.455581
 C        -1.817709         1.459934         1.965264
 C        -3.042612         2.122916         1.268522
 O        -2.377810         1.848329         0.013265
 C        -0.978679         1.826868         0.736327
 C        -0.872422         1.647973         3.063423
 C         0.409505         1.004715         2.399137
 H         0.184105        -0.925030        -0.064867
 H        -2.341153        -0.312177         0.590057
 H        -1.582071        -0.895432         2.154564
 H        -4.032702         1.727087         1.541062
 H        -2.919681         3.155463         1.499873
 H        -0.429791         2.694999         0.588812
 H        -0.812994         2.728031         3.446828
 H        -1.073870         1.110085         4.020545
 H         1.230881         1.776848         2.059379
 H         0.765937         0.188722         3.120092
