19
Iteration:  2118
 O         0.678865        -0.042401         0.147729
 C        -0.298972         0.502863         1.011098
 C        -1.655596        -0.044786         1.592822
 C        -1.829124         1.440293         1.996342
 C        -2.999851         2.065119         1.327652
 O        -2.423491         1.884828        -0.040690
 C        -1.075731         1.803912         0.667236
 C        -0.792119         1.717162         3.007507
 C         0.370439         0.954037         2.328918
 H         0.279008        -0.373128        -0.695803
 H        -2.301550        -0.425918         0.781685
 H        -1.579814        -0.848713         2.401118
 H        -4.047645         1.672015         1.355197
 H        -3.131104         3.137561         1.563303
 H        -0.389170         2.740765         0.490074
 H        -0.515481         2.754719         3.190446
 H        -1.171890         1.287862         3.977829
 H         1.302261         1.653103         2.146593
 H         0.677388         0.050506         2.813146
