19
Iteration:  1201
 O         0.599297        -0.196753         0.120987
 C        -0.286249         0.518804         0.994853
 C        -1.608442        -0.063548         1.646780
 C        -1.862530         1.408534         1.950503
 C        -3.066610         2.040006         1.268656
 O        -2.419818         1.912839        -0.043078
 C        -1.095991         1.819560         0.676842
 C        -0.759050         1.651407         3.078153
 C         0.431426         1.168493         2.254534
 H         1.546214        -0.067152         0.414786
 H        -2.472953        -0.287229         1.032996
 H        -1.633975        -0.684527         2.506853
 H        -4.125129         1.576690         1.421179
 H        -3.013544         3.139376         1.362529
 H        -0.617925         2.780643         0.581566
 H        -0.759566         2.588496         3.555884
 H        -0.937981         0.848903         3.856382
 H         0.948672         2.099247         1.750743
 H         0.993623         0.412658         2.732965
