19
Iteration:  4546
 O         0.589987         0.001582        -0.034705
 C        -0.316118         0.549460         0.946634
 C        -1.726489        -0.117100         1.501644
 C        -1.862764         1.459792         2.000971
 C        -2.914906         2.301725         1.223443
 O        -2.253412         1.968147        -0.061791
 C        -1.022433         1.811558         0.782354
 C        -0.907128         1.543786         3.163653
 C         0.314467         0.771137         2.428127
 H         1.031828        -0.845313         0.286333
 H        -2.479143        -0.481799         0.824869
 H        -1.593199        -0.719824         2.334447
 H        -3.984258         2.101882         1.377587
 H        -2.735721         3.345103         1.431915
 H        -0.432909         2.807671         0.911435
 H        -0.768383         2.542095         3.348649
 H        -1.069191         1.160390         4.133438
 H         1.228959         1.299171         2.423948
 H         0.475126        -0.172356         2.808412
