19
Iteration:  1385charge 0 multiplicity 1
 O         0.548428        -0.116913         0.086736
 C        -0.260977         0.464177         1.001225
 C        -1.642711        -0.076395         1.588145
 C        -1.851145         1.355762         1.982455
 C        -3.029688         2.018267         1.286366
 O        -2.398891         1.973596        -0.042490
 C        -1.069286         1.794425         0.688305
 C        -0.780195         1.793052         3.075663
 C         0.387357         1.009318         2.332591
 H         1.448594         0.115089         0.290413
 H        -2.425951        -0.427695         0.840543
 H        -1.453932        -0.842242         2.370941
 H        -3.986274         1.388495         1.189738
 H        -3.127436         3.094292         1.443104
 H        -0.456227         2.721905         0.442649
 H        -0.675095         2.900339         2.930232
 H        -0.847711         1.514505         4.147570
 H         1.102018         1.771381         2.050762
 H         0.815188         0.139582         3.038236
