19
Iteration:  2468
 O         0.573111        -0.118185         0.153585
 C        -0.310393         0.532677         0.976029
 C        -1.653472         0.009761         1.506483
 C        -1.796591         1.529316         1.933945
 C        -3.088953         1.853316         1.260112
 O        -2.337325         2.037178         0.015215
 C        -1.015325         1.861175         0.741352
 C        -0.786733         1.732139         3.058520
 C         0.446206         0.884438         2.353366
 H         0.115200        -0.519531        -0.546879
 H        -2.433853        -0.288356         0.754788
 H        -1.641453        -0.650962         2.408616
 H        -3.905886         1.204918         1.373818
 H        -3.591594         2.811487         1.610523
 H        -0.452089         2.846124         0.451318
 H        -0.465778         2.796918         3.061358
 H        -1.107308         1.286795         4.028032
 H         1.368919         1.408937         2.337055
 H         0.644823        -0.036594         2.777288
