19
Iteration:  3097
 O         0.617613        -0.140082         0.093905
 C        -0.282325         0.460712         1.021812
 C        -1.677402        -0.058598         1.576091
 C        -1.848182         1.414792         1.951380
 C        -3.041937         2.016134         1.294410
 O        -2.294960         2.035127         0.000933
 C        -1.051741         1.807756         0.686692
 C        -0.811519         1.731058         3.082322
 C         0.378104         1.015932         2.324800
 H         0.010989        -0.372720        -0.705950
 H        -2.251797        -0.456219         0.718627
 H        -1.621748        -0.829015         2.404793
 H        -3.960479         1.282142         1.372637
 H        -3.402439         3.087894         1.429900
 H        -0.527827         2.916661         0.715932
 H        -0.713714         2.750336         3.341627
 H        -0.919572         1.139148         3.974080
 H         1.255145         1.638527         2.061767
 H         0.829532         0.262283         2.833187
