19
Iteration:  4167
 O         0.667232        -0.166195         0.104918
 C        -0.297831         0.507300         0.987239
 C        -1.650697        -0.060806         1.426094
 C        -1.851449         1.387294         1.934454
 C        -2.968855         2.240686         1.289765
 O        -2.276920         2.080621        -0.013567
 C        -0.996682         1.864909         0.721221
 C        -0.917036         1.621502         3.142194
 C         0.301552         0.787716         2.427607
 H         0.204841        -0.147170        -0.792274
 H        -2.273376        -0.291306         0.559208
 H        -1.751691        -0.880394         2.143918
 H        -4.015143         1.674632         1.194233
 H        -3.011316         3.326629         1.775895
 H        -0.332669         2.839813         0.681459
 H        -0.801303         2.657701         3.293965
 H        -1.404766         1.207295         4.042028
 H         1.193575         1.330635         2.466437
 H         0.364058        -0.139510         2.943505
