19
Iteration:  2483charge 0 multiplicity 1
 O         0.666220        -0.090484         0.158244
 C        -0.278718         0.491215         1.041573
 C        -1.677330        -0.034616         1.555689
 C        -1.842642         1.420575         1.970670
 C        -3.121932         2.067788         1.337899
 O        -2.367188         2.023406        -0.019767
 C        -1.047042         1.825215         0.608021
 C        -0.772027         1.653528         3.064222
 C         0.410222         0.950356         2.307088
 H         0.172221        -0.670814        -0.476766
 H        -2.311277        -0.244323         0.688933
 H        -1.705913        -0.867300         2.304045
 H        -3.921529         1.336635         1.203596
 H        -3.368459         3.098058         1.526174
 H        -0.342998         2.734210         0.588510
 H        -0.610133         2.708951         3.346475
 H        -0.995008         1.110012         4.020923
 H         1.257861         1.633248         1.980401
 H         0.832352         0.142676         2.895333
