19
Iteration:  3487
 O         0.580423        -0.346386         0.177007
 C        -0.225721         0.569044         0.931607
 C        -1.582218        -0.019565         1.501069
 C        -1.847575         1.403753         1.903625
 C        -3.057755         2.137217         1.316519
 O        -2.355707         2.027601         0.012783
 C        -1.062831         1.910624         0.670949
 C        -0.899038         1.496497         3.132847
 C         0.403772         1.096510         2.352867
 H         0.984462        -0.156822        -0.689895
 H        -2.307532        -0.428540         0.773843
 H        -1.453041        -0.738799         2.298712
 H        -4.011349         1.673065         1.368567
 H        -3.218290         3.278368         1.474188
 H        -0.577747         3.030506         0.630401
 H        -0.701573         2.564712         3.491742
 H        -1.163853         0.894916         3.970868
 H         0.918979         2.046320         2.284118
 H         1.024354         0.191298         2.562381
