19
Iteration:  2001charge 0 multiplicity 1
 O         0.640186        -0.046358         0.070890
 C        -0.271333         0.469260         1.043171
 C        -1.564077        -0.079100         1.575850
 C        -1.831313         1.389334         1.942239
 C        -3.006860         2.166501         1.334199
 O        -2.403179         1.833137        -0.031581
 C        -1.074067         1.770139         0.670388
 C        -0.814154         1.747539         3.083535
 C         0.357480         0.975925         2.324974
 H         0.203250         0.073278        -0.737332
 H        -2.268557        -0.406481         0.810453
 H        -1.528597        -0.865183         2.374134
 H        -4.011450         1.641532         1.452785
 H        -2.979564         3.229907         1.635941
 H        -0.688102         2.740404         0.577977
 H        -0.761466         2.858950         3.044803
 H        -1.217050         1.600039         4.083082
 H         1.239063         1.644861         2.302891
 H         0.512897         0.002890         3.044201
