19
Iteration:  2792charge 0 multiplicity 1
 O         0.710463        -0.267523         0.168512
 C        -0.282332         0.507363         0.949665
 C        -1.598201        -0.069529         1.481987
 C        -1.895686         1.407381         1.998591
 C        -3.044586         2.213154         1.283277
 O        -2.405332         1.960691         0.027861
 C        -1.087498         1.776156         0.718111
 C        -0.825472         1.593717         3.052532
 C         0.380769         1.114454         2.302919
 H         0.549727         0.104841        -0.706128
 H        -2.343883        -0.395504         0.759283
 H        -1.543553        -0.835973         2.255309
 H        -4.101191         1.948911         1.425444
 H        -3.038869         3.392625         1.487100
 H        -0.477990         2.741643         0.678727
 H        -0.714678         2.594845         3.515879
 H        -1.181216         0.919051         3.877826
 H         1.120737         1.940988         2.204337
 H         0.921692         0.366184         2.829585
