19
Iteration:   794
 O         0.542643        -0.256051        -0.033021
 C        -0.227557         0.596071         0.953405
 C        -1.545293        -0.055049         1.561238
 C        -1.807263         1.390804         1.965509
 C        -3.093914         2.005117         1.323400
 O        -2.359712         1.894042         0.054650
 C        -1.071195         1.880355         0.689475
 C        -0.867073         1.740494         3.014017
 C         0.416523         1.173041         2.448006
 H         0.536765        -1.169111         0.428263
 H        -2.189317        -0.477574         0.783859
 H        -1.545692        -0.733600         2.349954
 H        -4.072575         1.481339         1.137848
 H        -3.333613         3.104884         1.527538
 H        -0.468816         2.862876         0.613241
 H        -0.716812         2.860222         3.095556
 H        -0.949845         1.371186         4.066148
 H         1.319995         1.834705         2.247475
 H         0.676819         0.276637         2.849729
