19
Iteration:     1charge 0 multiplicity 1
 O         0.553754        -0.061541         0.062817
 C        -0.265937         0.564492         0.995750
 C        -1.517525        -0.059177         1.655573
 C        -1.817554         1.451254         1.979083
 C        -3.090201         1.940361         1.289285
 O        -2.432548         1.745802        -0.002170
 C        -1.123665         1.786034         0.639586
 C        -0.796163         1.794490         3.053869
 C         0.434067         1.174772         2.272833
 H         1.065365        -0.744937         0.509893
 H        -2.217989        -0.479915         0.936836
 H        -1.364199        -0.730446         2.504896
 H        -3.996968         1.334509         1.383607
 H        -3.326471         3.000635         1.452267
 H        -0.617451         2.736166         0.438105
 H        -0.681159         2.869546         3.216195
 H        -0.967782         1.314703         4.021614
 H         1.179738         1.927298         2.000303
 H         0.939617         0.386241         2.839620
