19
Iteration:   206
 O         0.719012        -0.091835         0.237736
 C        -0.297108         0.465723         0.991507
 C        -1.603140        -0.076653         1.554272
 C        -1.835278         1.466567         1.967897
 C        -3.144467         2.000229         1.347702
 O        -2.436230         1.893570         0.057319
 C        -1.042330         1.752982         0.608167
 C        -0.762493         1.801094         3.005658
 C         0.343216         1.035147         2.243141
 H         0.601089         0.022387        -0.689722
 H        -2.391794        -0.415675         0.856054
 H        -1.514219        -0.817028         2.323909
 H        -3.946717         1.288432         1.415214
 H        -3.526620         3.034616         1.517675
 H        -0.398611         2.708264         0.381552
 H        -0.533722         2.871696         3.257812
 H        -0.878864         1.397742         3.971329
 H         1.011648         1.832053         1.826767
 H         0.987427         0.294870         2.719425
