19
Iteration:  4287
 O         0.569778         0.030013         0.045612
 C        -0.376219         0.447155         1.016923
 C        -1.759988        -0.006318         1.413411
 C        -1.786702         1.543071         1.978154
 C        -2.987711         2.161128         1.220990
 O        -2.249801         1.998954        -0.051235
 C        -0.994699         1.830578         0.776257
 C        -0.819865         1.590541         3.167950
 C         0.323099         0.718324         2.452104
 H         1.232201        -0.533764         0.466302
 H        -2.400561         0.013634         0.491628
 H        -1.968836        -0.908742         2.020002
 H        -3.808758         1.605654         1.308877
 H        -3.138966         3.203190         1.464436
 H        -0.325273         2.655092         0.461267
 H        -0.432671         2.555173         3.440458
 H        -1.301062         1.055275         4.039770
 H         1.204791         1.150350         2.135912
 H         0.479103        -0.271602         2.860607
