19
Iteration:  3824
 O         0.508503        -0.245989         0.076032
 C        -0.229244         0.500882         0.990327
 C        -1.591882        -0.042064         1.462411
 C        -1.902366         1.368106         1.975550
 C        -2.999304         2.135622         1.228605
 O        -2.264615         2.105060        -0.068621
 C        -0.981811         1.866740         0.817871
 C        -0.957722         1.645300         3.181896
 C         0.382060         0.915443         2.391323
 H         0.266632        -0.012101        -0.826587
 H        -2.168298        -0.411040         0.598162
 H        -1.372655        -0.929615         2.189775
 H        -4.136778         1.725439         1.157437
 H        -2.863481         3.124152         1.607808
 H        -0.618280         2.817953         0.934586
 H        -0.701102         2.754754         3.327541
 H        -1.320100         1.222291         4.103529
 H         1.291232         1.674757         2.350409
 H         0.918968        -0.003253         2.775251
