19
Iteration:  2973charge 0 multiplicity 1
 O         0.557910        -0.157792         0.065534
 C        -0.290969         0.551368         0.974311
 C        -1.543954        -0.006298         1.569141
 C        -1.787756         1.515600         1.976532
 C        -3.087722         1.999157         1.244152
 O        -2.310569         1.982323        -0.011879
 C        -1.056934         1.811222         0.730229
 C        -0.844107         1.676310         3.097664
 C         0.402664         0.953133         2.367483
 H        -0.144179        -0.548089        -0.549234
 H        -2.280035        -0.246873         0.779952
 H        -1.449692        -0.740765         2.356359
 H        -3.972874         1.206232         1.351525
 H        -3.431355         3.081679         1.357968
 H        -0.453552         2.838501         0.853801
 H        -0.645311         2.735657         3.339367
 H        -1.096329         1.219823         4.029278
 H         1.223899         1.564352         2.091307
 H         0.638908         0.084803         2.927745
