19
Iteration:  4469charge 0 multiplicity 1
 O         0.436685        -0.131438         0.104844
 C        -0.312369         0.459538         0.990162
 C        -1.584492        -0.174292         1.493122
 C        -1.859370         1.365701         1.903114
 C        -3.034371         2.294682         1.260561
 O        -2.216858         2.201464        -0.048519
 C        -0.997745         1.807719         0.720278
 C        -0.894817         1.487012         3.100070
 C         0.416672         0.975276         2.415984
 H         0.966085        -0.890161         0.377955
 H        -2.189006        -0.469800         0.624639
 H        -1.609980        -0.821825         2.301490
 H        -3.886779         1.691543         0.950540
 H        -3.123034         3.242210         1.734631
 H        -0.433444         2.805757         1.124908
 H        -0.895441         2.467361         3.450405
 H        -1.289911         0.768989         3.783733
 H         1.111331         1.747972         2.227947
 H         0.864104         0.150811         2.827703
