19
Iteration:  4227charge 0 multiplicity 1
 O         0.496112        -0.190174         0.057165
 C        -0.287487         0.504469         1.004004
 C        -1.632490        -0.067012         1.387902
 C        -1.879798         1.438923         1.887679
 C        -3.009831         2.206512         1.240945
 O        -2.204646         2.142704         0.020964
 C        -0.904288         1.851963         0.772176
 C        -0.899130         1.426113         3.216256
 C         0.296127         1.011073         2.407047
 H         0.250064        -1.152300         0.218091
 H        -2.185127        -0.249363         0.470871
 H        -1.661082        -0.871606         2.139301
 H        -3.998484         1.656025         1.084376
 H        -3.236264         3.186154         1.575095
 H        -0.208945         2.562103         0.579157
 H        -0.780495         2.512620         3.547833
 H        -1.342266         0.899216         4.044424
 H         1.069389         1.901754         2.204653
 H         1.070611         0.249556         2.804166
