19
Iteration:   992
 O         0.531473         0.037612         0.030502
 C        -0.293945         0.523525         0.986565
 C        -1.597145        -0.110340         1.643863
 C        -1.803831         1.428182         1.963765
 C        -3.038627         2.058588         1.323759
 O        -2.441758         1.705178        -0.031270
 C        -1.028506         1.760845         0.685328
 C        -0.777045         1.859757         3.031178
 C         0.461456         1.027003         2.325327
 H         0.639228        -0.902781         0.202269
 H        -2.329282        -0.399878         0.925364
 H        -1.459324        -0.654449         2.554643
 H        -4.040638         1.554498         1.439276
 H        -2.944754         3.118626         1.383687
 H        -0.536078         2.814663         0.498531
 H        -0.864001         2.968710         3.185949
 H        -1.048387         1.288060         3.996136
 H         1.210155         1.880269         2.179820
 H         0.701964         0.264243         3.033053
