19
Iteration:  2909
 O         0.703101        -0.168681         0.142521
 C        -0.338577         0.483720         0.945361
 C        -1.634445        -0.081055         1.546629
 C        -1.860547         1.409525         2.028216
 C        -3.085945         2.185176         1.263687
 O        -2.384194         1.979609        -0.020294
 C        -1.061215         1.781734         0.644258
 C        -0.742450         1.572533         3.166863
 C         0.348736         1.062019         2.323769
 H         0.639286         0.021599        -0.779323
 H        -2.497766        -0.503705         0.935401
 H        -1.558867        -0.767685         2.460190
 H        -4.201251         1.895532         1.142856
 H        -3.077108         3.256537         1.377738
 H        -0.502456         2.701900         0.598213
 H        -0.686571         2.612502         3.452351
 H        -0.982608         1.044081         4.035216
 H         1.144386         1.790288         1.873949
 H         0.950497         0.394986         2.838352
