19
Iteration:  4251
 O         0.516997        -0.120410        -0.011661
 C        -0.338845         0.533609         0.976360
 C        -1.640773        -0.107953         1.523732
 C        -1.891109         1.335207         1.927808
 C        -2.880983         2.129238         1.255906
 O        -2.177467         2.181738        -0.045670
 C        -1.015237         1.894353         0.770385
 C        -0.945527         1.559384         3.131985
 C         0.322685         0.903415         2.400916
 H         0.556281        -1.004951         0.347333
 H        -2.326120        -0.401146         0.734775
 H        -1.481511        -0.897906         2.310332
 H        -3.886872         1.913120         1.155925
 H        -2.802887         3.084590         1.655885
 H        -0.450827         2.703130         0.952554
 H        -1.036275         2.636502         3.365587
 H        -1.384042         1.053733         4.024761
 H         1.352852         1.399719         2.363859
 H         0.542453        -0.032653         3.060169
