19
Iteration:  3198charge 0 multiplicity 1
 O         0.676499        -0.317884         0.170010
 C        -0.242732         0.513233         0.942341
 C        -1.551188        -0.061790         1.538138
 C        -1.892974         1.404616         1.880146
 C        -3.052539         2.069881         1.347991
 O        -2.398353         2.098275         0.058358
 C        -1.099048         1.843864         0.685895
 C        -0.857449         1.722253         3.016725
 C         0.383681         0.971617         2.330380
 H         0.575075         0.094511        -0.664221
 H        -2.289695        -0.462901         0.777094
 H        -1.402463        -0.671670         2.464221
 H        -3.986620         1.446270         1.108418
 H        -3.371719         3.096581         1.847391
 H        -0.619083         2.971889         0.734003
 H        -0.714037         2.775217         2.959280
 H        -1.103266         1.366453         4.047940
 H         1.281080         1.543750         2.180694
 H         0.764182         0.174597         2.906454
