19
Iteration:  4689charge 0 multiplicity 1
 O         0.605187        -0.051026         0.138999
 C        -0.382538         0.561057         0.963415
 C        -1.730505        -0.036721         1.456817
 C        -1.867648         1.468556         2.027032
 C        -2.903466         2.208895         1.202800
 O        -2.221043         1.982807        -0.056292
 C        -0.999940         1.842545         0.740152
 C        -0.847821         1.511337         3.182783
 C         0.303338         0.800802         2.400942
 H         0.292645        -0.016811        -0.821952
 H        -2.408399        -0.227808         0.685954
 H        -1.597479        -0.805139         2.120037
 H        -3.973304         1.798149         1.151784
 H        -2.995845         3.326188         1.414732
 H        -0.335530         2.731853         0.693820
 H        -0.713605         2.485525         3.609287
 H        -1.158772         0.831401         4.017536
 H         1.257344         1.260013         2.301706
 H         0.470062        -0.174320         2.732079
