19
Iteration:   611
 O         0.544437        -0.314665         0.079323
 C        -0.220340         0.602125         0.912335
 C        -1.408208        -0.012628         1.484789
 C        -1.789288         1.434081         1.981401
 C        -3.005975         2.152341         1.325048
 O        -2.470031         1.772397        -0.017389
 C        -1.097799         1.874942         0.674605
 C        -0.900677         1.680908         3.151170
 C         0.318290         1.137525         2.417732
 H         1.086763         0.036611        -0.652554
 H        -1.961840        -0.303811         0.593665
 H        -1.333147        -0.852672         2.224822
 H        -4.024247         1.804320         1.455902
 H        -2.974296         3.225948         1.613735
 H        -0.646066         2.976582         0.643195
 H        -0.856986         2.683738         3.580961
 H        -1.102592         1.046454         4.004851
 H         1.101681         1.872791         2.322471
 H         0.596699         0.133020         2.767769
