19
Iteration:  4318charge 0 multiplicity 1
 O         0.559723        -0.152114         0.055561
 C        -0.312331         0.560020         0.956848
 C        -1.616271        -0.011196         1.458106
 C        -1.839131         1.489230         1.968018
 C        -2.988392         2.243104         1.236138
 O        -2.260765         2.016334        -0.001350
 C        -0.995316         1.945931         0.733408
 C        -0.960011         1.479427         3.132926
 C         0.324103         0.793939         2.401073
 H         1.146347        -0.732842         0.587765
 H        -2.325675        -0.307947         0.640223
 H        -1.524145        -0.767410         2.278025
 H        -3.974406         1.833434         1.255630
 H        -3.039475         3.269592         1.544737
 H        -0.483274         2.747322         0.514029
 H        -0.639244         2.429317         3.546662
 H        -1.359254         0.882578         4.005252
 H         1.198448         1.477182         2.284333
 H         0.698674        -0.265451         2.742403
