19
Iteration:  4013
 O         0.536397         0.025108        -0.008823
 C        -0.313228         0.518257         1.013733
 C        -1.768409        -0.108006         1.451880
 C        -1.842285         1.431304         1.948847
 C        -2.909141         2.167048         1.256988
 O        -2.210889         2.030359        -0.031726
 C        -0.925358         1.845691         0.691945
 C        -0.957012         1.593548         3.174219
 C         0.309719         0.808879         2.479207
 H         0.978883        -0.725484         0.390458
 H        -2.481368        -0.355944         0.647449
 H        -1.677838        -0.860160         2.249795
 H        -3.967584         1.659629         1.165891
 H        -2.976942         3.128721         1.633061
 H        -0.344504         2.707249         0.541420
 H        -0.804764         2.613825         3.402879
 H        -1.242473         0.985341         4.058617
 H         1.421720         1.431679         2.325197
 H         0.590267        -0.150482         2.935781
