19
Iteration:  4207
 O         0.595487        -0.204741         0.134552
 C        -0.254928         0.479122         0.988002
 C        -1.766136         0.081318         1.426161
 C        -1.840847         1.487554         1.957808
 C        -2.994726         2.161353         1.239884
 O        -2.233811         2.080206        -0.044430
 C        -1.016696         1.946796         0.724031
 C        -0.917977         1.418511         3.180979
 C         0.390855         0.940912         2.375259
 H         0.413913        -1.125351         0.009796
 H        -2.456347         0.054384         0.589416
 H        -1.992634        -0.782408         2.122938
 H        -3.793880         1.582705         1.191414
 H        -3.320131         3.128554         1.440337
 H        -0.498960         2.885844         0.714497
 H        -0.682664         2.181596         3.972813
 H        -1.150406         0.503132         3.773701
 H         1.245992         1.666157         2.159702
 H         1.093728         0.112583         2.787615
