19
Iteration:  1319
 O         0.516412        -0.142126         0.070359
 C        -0.223237         0.547761         1.034452
 C        -1.507590        -0.036899         1.556905
 C        -1.790285         1.454111         1.965436
 C        -3.095971         2.126592         1.232455
 O        -2.378413         1.803935        -0.020431
 C        -1.056368         1.807071         0.694832
 C        -0.842198         1.653041         3.108408
 C         0.417662         1.175002         2.320595
 H         0.036920        -0.986589        -0.168963
 H        -2.189156        -0.465140         0.770883
 H        -1.471644        -0.743551         2.425127
 H        -3.807929         1.420793         1.654497
 H        -3.138664         3.167953         1.395845
 H        -0.574553         2.815152         0.504341
 H        -0.891512         2.680607         3.566040
 H        -1.038029         0.984520         3.941777
 H         1.121581         1.924134         2.103777
 H         0.757870         0.285134         2.957159
