19
Iteration:  1788
 O         0.689784        -0.141142         0.166032
 C        -0.302751         0.546294         0.996118
 C        -1.640922        -0.100945         1.595631
 C        -1.818264         1.450291         2.009667
 C        -3.016174         2.090276         1.283547
 O        -2.391423         1.984120        -0.050339
 C        -1.104953         1.715495         0.629586
 C        -0.831009         1.574545         3.137043
 C         0.403746         1.180896         2.251933
 H         0.071604        -0.585636        -0.418044
 H        -2.392121        -0.461839         0.855372
 H        -1.581562        -0.883473         2.432584
 H        -4.055837         1.644252         1.162358
 H        -3.007633         3.076349         1.595013
 H        -0.480696         2.612698         0.442246
 H        -0.811765         2.634554         3.405616
 H        -1.004872         1.052566         4.046818
 H         1.060382         2.063339         2.003782
 H         0.992177         0.269711         2.694743
