19
Iteration:  4982charge 0 multiplicity 1
 O         0.475746        -0.082465         0.090081
 C        -0.332333         0.527348         1.053216
 C        -1.647464        -0.073423         1.420945
 C        -1.864011         1.418799         1.964207
 C        -2.960259         2.122600         1.185271
 O        -2.111480         2.082873         0.005369
 C        -0.986490         1.859593         0.831295
 C        -0.894860         1.579758         3.133725
 C         0.321124         0.883105         2.352115
 H        -0.086850        -0.749306        -0.268311
 H        -2.251588        -0.378894         0.510799
 H        -1.704231        -1.028714         1.981591
 H        -3.963066         1.629655         0.971747
 H        -3.151859         3.175008         1.649611
 H        -0.372370         2.754411         0.795623
 H        -0.716199         2.572586         3.341677
 H        -1.206375         1.166995         4.056940
 H         1.269155         1.522362         2.253130
 H         0.569980        -0.083334         2.805146
