19
Iteration:   896
 O         0.569287        -0.236376         0.097652
 C        -0.211028         0.543619         0.960433
 C        -1.556658        -0.059507         1.634881
 C        -1.820104         1.391576         1.959536
 C        -3.072922         1.995047         1.365690
 O        -2.457094         1.925988        -0.005477
 C        -1.105354         1.857634         0.669574
 C        -0.841744         1.774567         2.981887
 C         0.421262         1.091241         2.252014
 H         1.321247        -0.265384         0.652659
 H        -2.046639        -0.340919         0.711194
 H        -1.366133        -0.945451         2.360223
 H        -3.996524         1.369085         1.542857
 H        -3.264884         3.109592         1.550586
 H        -0.828526         2.937213         0.665654
 H        -0.541546         2.816566         3.034715
 H        -0.995294         1.464557         4.103418
 H         1.209146         1.884899         2.096210
 H         0.778978         0.190429         2.823704
