19
Iteration:  2764charge 0 multiplicity 1
 O         0.552720        -0.180819         0.191054
 C        -0.310026         0.571446         1.010052
 C        -1.596992        -0.006978         1.489394
 C        -1.847835         1.464154         1.976210
 C        -2.982612         2.131189         1.300844
 O        -2.393874         1.858783        -0.079306
 C        -1.027747         1.842957         0.646187
 C        -0.824225         1.547916         3.156062
 C         0.420077         1.058664         2.334461
 H         0.239901         0.150317        -0.708320
 H        -2.288354        -0.312228         0.697141
 H        -1.444001        -0.721154         2.328668
 H        -4.072835         1.743731         1.413148
 H        -2.800394         3.140860         1.490248
 H        -0.516512         2.788702         0.480331
 H        -0.642041         2.452156         3.727045
 H        -1.253128         0.787627         3.793533
 H         1.034974         1.971005         2.119769
 H         1.066880         0.223683         2.826139
