19
Iteration:  2202charge 0 multiplicity 1
 O         0.593518        -0.217485         0.125502
 C        -0.252888         0.468541         0.982017
 C        -1.608104        -0.105445         1.578784
 C        -1.803760         1.342529         2.020364
 C        -3.087286         1.934012         1.284007
 O        -2.328667         2.138120         0.026416
 C        -1.085186         1.835439         0.703589
 C        -0.856428         1.800769         3.027639
 C         0.392738         1.098083         2.263784
 H         0.230326        -0.640148        -0.648580
 H        -2.151715        -0.459328         0.730868
 H        -1.572226        -0.832087         2.341342
 H        -3.845974         1.212179         1.137761
 H        -3.355788         2.950792         1.617453
 H        -0.501856         2.718040         0.802620
 H        -0.582162         2.846344         3.142414
 H        -1.068397         1.405760         4.003525
 H         1.199000         1.725840         2.120412
 H         0.858203         0.250591         2.914085
