19
Iteration:  1482charge 0 multiplicity 1
 O         0.704614        -0.107324         0.159061
 C        -0.255235         0.539147         0.965416
 C        -1.544158        -0.150594         1.549818
 C        -1.889585         1.395276         1.984066
 C        -3.114942         2.195880         1.308009
 O        -2.399243         1.962635        -0.003163
 C        -1.108595         1.760235         0.618208
 C        -0.823820         1.703007         3.042710
 C         0.401366         0.986485         2.336972
 H         0.198262        -0.839407        -0.151135
 H        -2.412316        -0.378887         0.824447
 H        -1.459057        -0.916214         2.390376
 H        -4.012291         1.739645         1.220424
 H        -2.968667         3.261954         1.610263
 H        -0.636272         2.762451         0.446923
 H        -0.613199         2.889512         3.064165
 H        -0.901974         1.420558         4.119079
 H         1.246098         1.559510         2.212019
 H         0.531452         0.054317         3.017393
