19
Iteration:  3538charge 0 multiplicity 1
 O         0.666949        -0.059156         0.065609
 C        -0.305646         0.514524         1.018037
 C        -1.675315        -0.005354         1.506249
 C        -1.888905         1.396860         1.982625
 C        -3.003056         2.098128         1.292476
 O        -2.288424         1.934452        -0.021724
 C        -1.044164         1.890038         0.791484
 C        -0.847533         1.675634         3.072468
 C         0.325136         0.874289         2.353234
 H         0.326531        -0.868096        -0.435994
 H        -2.365523        -0.236209         0.672077
 H        -1.529159        -0.859218         2.230867
 H        -4.080508         1.652132         1.248063
 H        -3.106579         3.117465         1.529077
 H        -0.575237         2.782851         0.658761
 H        -0.633452         2.723734         3.106344
 H        -0.901333         1.287381         4.123777
 H         1.263470         1.488297         2.005343
 H         0.658023        -0.027088         2.874908
