19
Iteration:  1093charge 0 multiplicity 1
 O         0.610090        -0.117583         0.144205
 C        -0.314471         0.508002         1.005659
 C        -1.542207        -0.065591         1.669852
 C        -1.842436         1.468401         1.941275
 C        -3.104289         2.093618         1.292295
 O        -2.397133         1.812268        -0.027595
 C        -1.093354         1.755794         0.649543
 C        -0.765951         1.682333         3.080584
 C         0.389661         1.108194         2.280879
 H         0.611883         0.161691        -0.771000
 H        -2.327163        -0.438852         1.036889
 H        -1.434178        -0.691421         2.557625
 H        -4.050088         1.560478         1.247316
 H        -3.207773         3.172249         1.525487
 H        -0.481338         2.692552         0.330707
 H        -0.565581         2.710063         3.366394
 H        -1.022556         1.121664         4.074971
 H         1.116912         1.908816         1.865475
 H         1.060986         0.460293         2.774693
