19
Iteration:  2179
 O         0.510489        -0.203200         0.091346
 C        -0.293741         0.594741         1.024455
 C        -1.557031        -0.134553         1.530135
 C        -1.816325         1.452759         1.989125
 C        -3.076723         2.040781         1.301178
 O        -2.343870         1.930769        -0.029452
 C        -1.011192         1.848802         0.672697
 C        -0.876382         1.685203         3.104828
 C         0.439041         1.105561         2.372448
 H        -0.001161        -0.326601        -0.728083
 H        -2.086464        -0.582726         0.710822
 H        -1.388178        -0.771312         2.340162
 H        -3.980124         1.446291         1.225769
 H        -3.162251         3.126506         1.548795
 H        -0.375501         2.712181         0.491122
 H        -0.648299         2.722943         3.376985
 H        -1.085009         1.163196         4.021813
 H         1.102384         1.843561         2.154910
 H         1.099672         0.294546         2.843741
