19
Iteration:  4799
 O         0.590623        -0.177862         0.132785
 C        -0.331027         0.504342         0.881853
 C        -1.679923        -0.038850         1.399633
 C        -1.777322         1.531219         1.948063
 C        -2.921137         2.233229         1.325019
 O        -2.351500         2.020703        -0.001579
 C        -0.922551         1.932157         0.634025
 C        -0.948338         1.436379         3.159149
 C         0.268525         0.874935         2.409203
 H         1.361922        -0.391128         0.645522
 H        -2.482981        -0.238346         0.710678
 H        -1.547649        -0.788355         2.084783
 H        -3.903974         1.719607         1.372811
 H        -3.065713         3.255024         1.589939
 H        -0.309392         2.738285         0.553810
 H        -0.700436         2.400220         3.572438
 H        -1.330800         1.019596         4.081547
 H         1.081434         1.570571         2.318374
 H         0.644807        -0.058111         2.790999
