19
Iteration:  1326
 O         0.532262        -0.140642         0.101579
 C        -0.194781         0.586521         0.990610
 C        -1.576914        -0.058786         1.556516
 C        -1.738150         1.447538         1.944228
 C        -3.039690         2.113660         1.302848
 O        -2.407178         1.801307        -0.057723
 C        -1.120420         1.825301         0.634488
 C        -0.847906         1.667529         3.128137
 C         0.411994         1.159302         2.339229
 H         0.235830        -1.120016         0.026210
 H        -2.241580        -0.424600         0.800061
 H        -1.453631        -0.841754         2.361425
 H        -3.935449         1.523845         1.510360
 H        -3.165544         3.221976         1.478494
 H        -0.652030         2.793321         0.362275
 H        -0.780417         2.666107         3.680710
 H        -1.050307         0.938570         3.932877
 H         1.267891         1.881832         2.402298
 H         0.879033         0.290449         2.895050
