19
Iteration:  1264charge 0 multiplicity 1
 O         0.561063        -0.156351         0.115333
 C        -0.251314         0.537374         1.018544
 C        -1.558939        -0.067640         1.632190
 C        -1.806589         1.482625         1.954743
 C        -3.149857         1.973646         1.239956
 O        -2.356612         1.912258         0.012192
 C        -1.085364         1.799898         0.631683
 C        -0.783950         1.805520         3.053368
 C         0.412302         0.951457         2.344107
 H         0.736313         0.615760        -0.540958
 H        -2.323633        -0.361104         0.904506
 H        -1.454096        -0.742049         2.546241
 H        -4.065021         1.304851         1.411218
 H        -3.526418         2.953963         1.559350
 H        -0.501694         2.716539         0.331393
 H        -0.497197         2.887162         3.012982
 H        -1.136629         1.427208         3.982862
 H         1.167493         1.639822         2.205790
 H         0.849085         0.052319         2.964060
