19
Iteration:  1099charge 0 multiplicity 1
 O         0.629133        -0.068110         0.151162
 C        -0.303255         0.507888         1.039755
 C        -1.589471        -0.022023         1.705927
 C        -1.837679         1.508985         1.943903
 C        -3.076675         2.053218         1.316111
 O        -2.388539         1.806223        -0.066069
 C        -1.074309         1.730670         0.638002
 C        -0.786374         1.668869         3.103639
 C         0.398734         1.074396         2.194802
 H         0.383243         0.009288        -0.772949
 H        -2.314994        -0.433201         0.975191
 H        -1.283712        -0.801230         2.447730
 H        -4.148811         1.680802         1.422563
 H        -3.293602         3.118409         1.512571
 H        -0.585501         2.635674         0.473486
 H        -0.623291         2.758621         3.276413
 H        -0.986666         1.195661         4.000739
 H         1.162575         1.842017         2.002829
 H         0.905303         0.304700         2.907516
