19
Iteration:  1180charge 0 multiplicity 1
 O         0.533793        -0.155344         0.060705
 C        -0.295307         0.512254         1.017452
 C        -1.555241        -0.106881         1.639364
 C        -1.858200         1.485569         1.974882
 C        -3.109416         2.051232         1.265989
 O        -2.352618         1.949435        -0.025914
 C        -1.055561         1.749155         0.658462
 C        -0.809215         1.686522         3.145884
 C         0.429093         1.125204         2.210910
 H         1.294391        -0.340197         0.570202
 H        -2.254296        -0.542936         0.898136
 H        -1.443778        -0.747535         2.481185
 H        -3.810423         1.198071         1.271037
 H        -3.452732         3.028727         1.624338
 H        -0.502496         2.602901         0.263248
 H        -0.700016         2.719605         3.418219
 H        -1.131726         1.128804         4.105733
 H         0.992715         2.175960         1.975153
 H         0.985142         0.424559         2.785202
