19
Iteration:  4233charge 0 multiplicity 1
 O         0.452187        -0.171882         0.071088
 C        -0.273875         0.499295         0.991588
 C        -1.588195        -0.102889         1.399274
 C        -1.867931         1.375124         1.922334
 C        -2.968635         2.209218         1.250104
 O        -2.189952         2.160716        -0.001403
 C        -0.921011         1.859752         0.744752
 C        -0.973840         1.504218         3.209228
 C         0.306720         0.974172         2.399784
 H         0.359714        -1.108112         0.158004
 H        -2.236688        -0.382496         0.537736
 H        -1.603991        -0.929856         2.113244
 H        -3.957487         1.643916         1.102851
 H        -3.189788         3.284442         1.674973
 H        -0.196569         2.844657         0.616021
 H        -0.712209         2.484656         3.544140
 H        -1.242066         0.895886         4.117724
 H         0.905071         1.804258         2.204799
 H         0.956353         0.213904         2.719980
