19
Iteration:  4696charge 0 multiplicity 1
 O         0.558707        -0.046312         0.136609
 C        -0.318421         0.552763         1.048160
 C        -1.728873        -0.017087         1.468872
 C        -1.817974         1.462937         1.992127
 C        -2.962008         2.204843         1.221794
 O        -2.224865         1.995146        -0.072092
 C        -0.975122         1.880107         0.685180
 C        -0.862215         1.489859         3.201485
 C         0.304100         0.761554         2.398848
 H         0.327034         0.210122        -0.797753
 H        -2.480210        -0.204955         0.676290
 H        -1.730478        -0.896241         2.183909
 H        -3.913692         1.671443         1.230784
 H        -3.111163         3.258859         1.294229
 H        -0.257362         2.650931         0.556396
 H        -0.623548         2.529673         3.496054
 H        -1.263164         0.828508         3.965698
 H         1.235354         1.403246         2.293089
 H         0.641716        -0.257063         2.788296
