19
Iteration:  2551
 O         0.652587        -0.183816         0.115159
 C        -0.314494         0.457346         0.993663
 C        -1.635891        -0.043100         1.533899
 C        -1.824785         1.539224         1.981305
 C        -3.110695         2.112997         1.296766
 O        -2.364409         1.928501        -0.046035
 C        -1.031248         1.845159         0.680406
 C        -0.799910         1.633428         3.174263
 C         0.417414         1.010089         2.325614
 H         0.261791        -0.090804        -0.829531
 H        -2.350583        -0.213794         0.753327
 H        -1.638554        -0.793447         2.273418
 H        -3.987854         1.359711         1.306227
 H        -3.254385         3.096710         1.557430
 H        -0.545272         2.842832         0.532115
 H        -0.773197         2.673004         3.567101
 H        -0.969232         0.989403         4.028115
 H         1.049729         1.791921         1.900825
 H         1.031136         0.155994         2.888871
