19
Iteration:   554charge 0 multiplicity 1
 O         0.637112        -0.163837         0.047906
 C        -0.421235         0.493585         0.937446
 C        -1.668905        -0.056948         1.677999
 C        -1.833895         1.516742         2.034223
 C        -3.131102         1.896845         1.231714
 O        -2.285088         1.979866         0.009797
 C        -1.047818         1.823488         0.684320
 C        -0.798970         1.775736         3.139728
 C         0.419886         0.984421         2.331764
 H         1.045600         0.600238        -0.445712
 H        -2.382981        -0.559438         1.039352
 H        -1.435718        -0.809072         2.428320
 H        -3.806495         1.085062         1.015404
 H        -3.663298         2.808472         1.353548
 H        -0.349078         2.748046         0.423239
 H        -0.564297         2.877104         3.120282
 H        -1.031932         1.400038         4.134804
 H         1.182945         1.779424         1.939582
 H         0.989237         0.194291         2.539348
