19
Iteration:  2042charge 0 multiplicity 1
 O         0.616290        -0.138905         0.173052
 C        -0.273103         0.570915         0.982807
 C        -1.580015        -0.002087         1.569070
 C        -1.764273         1.541345         2.047288
 C        -3.079591         2.073232         1.257521
 O        -2.381398         1.870477        -0.064089
 C        -1.104151         1.829227         0.664852
 C        -0.821681         1.556432         3.154501
 C         0.364905         1.048593         2.259879
 H         0.058168        -0.590127        -0.532493
 H        -2.380401        -0.204785         0.830809
 H        -1.531916        -0.808002         2.398494
 H        -4.039709         1.345641         1.345942
 H        -3.202290         3.212080         1.164657
 H        -0.398011         2.765766         0.547202
 H        -0.577583         2.513270         3.626447
 H        -0.816800         0.881479         3.994363
 H         1.027942         1.757695         1.932336
 H         1.033121         0.401734         2.633555
