19
Iteration:   639charge 0 multiplicity 1
 O         0.580680        -0.158909         0.189381
 C        -0.289803         0.468887         0.968392
 C        -1.627164        -0.008922         1.555044
 C        -1.790615         1.469392         1.943529
 C        -3.079910         2.007324         1.334563
 O        -2.416504         1.971807        -0.026995
 C        -1.066072         1.794425         0.636983
 C        -0.795865         1.640974         3.048801
 C         0.416674         1.054148         2.301388
 H         1.396875         0.292164         0.051714
 H        -2.251346        -0.317453         0.725785
 H        -1.631413        -0.643595         2.423648
 H        -3.930974         1.271853         1.400742
 H        -3.518665         2.965659         1.692527
 H        -0.462734         2.635777         0.465904
 H        -0.674564         2.696305         3.401655
 H        -1.037269         1.057821         3.961954
 H         1.048506         1.964517         1.920475
 H         1.056880         0.341855         2.803156
