19
Iteration:  2029
 O         0.618001        -0.102876         0.133480
 C        -0.304554         0.548363         0.990121
 C        -1.589567        -0.019460         1.547052
 C        -1.840497         1.463772         1.954995
 C        -3.028452         2.157091         1.276509
 O        -2.398349         1.766621        -0.034866
 C        -1.078412         1.851013         0.646276
 C        -0.780204         1.608517         3.204607
 C         0.436976         1.030696         2.307415
 H         0.128762        -0.408508        -0.641714
 H        -2.267455        -0.415931         0.772693
 H        -1.478080        -0.756355         2.360457
 H        -4.073935         1.774299         1.335322
 H        -3.113059         3.266273         1.501881
 H        -0.658556         2.910508         0.418156
 H        -0.678835         2.645736         3.510394
 H        -1.231632         1.032243         4.020556
 H         1.143203         1.841885         2.189340
 H         0.771770         0.195084         2.745049
