19
Iteration:  3450charge 0 multiplicity 1
 O         0.478144        -0.155585         0.054488
 C        -0.273234         0.586868         1.005390
 C        -1.670933        -0.015814         1.531819
 C        -1.799171         1.437053         1.920565
 C        -3.059043         2.043346         1.290892
 O        -2.301359         1.974349        -0.008238
 C        -1.024452         1.832797         0.706499
 C        -0.822605         1.634635         3.087539
 C         0.393979         0.928875         2.385659
 H         1.445510         0.025570         0.299282
 H        -2.193973        -0.212982         0.590570
 H        -1.811620        -0.833166         2.320721
 H        -3.964291         1.347525         1.281229
 H        -3.337026         2.993883         1.550737
 H        -0.507763         2.749046         0.693707
 H        -0.637090         2.671556         3.097270
 H        -1.080174         1.249349         4.106597
 H         1.243334         1.754218         2.122441
 H         0.908762         0.170212         2.964259
