19
Iteration:   585charge 0 multiplicity 1
 O         0.495250        -0.117844         0.090171
 C        -0.305940         0.554647         1.066644
 C        -1.567310        -0.086405         1.629767
 C        -1.842192         1.388361         1.959772
 C        -3.055824         2.086784         1.254911
 O        -2.354188         1.829557        -0.025921
 C        -1.052567         1.863321         0.649297
 C        -0.837149         1.659604         3.065462
 C         0.469323         1.065252         2.368845
 H         0.844578         0.514889        -0.549703
 H        -2.067226        -0.537402         0.761485
 H        -1.580783        -0.842954         2.402458
 H        -4.052531         1.558733         1.212990
 H        -3.036887         3.128444         1.530235
 H        -0.559075         2.779445         0.537961
 H        -0.735456         2.765934         3.223787
 H        -1.040915         1.205955         4.072858
 H         1.231930         1.908201         2.065283
 H         0.868848         0.134598         2.693267
