19
Iteration:  3467
 O         0.454391        -0.296608         0.155890
 C        -0.273194         0.516786         1.006259
 C        -1.535357        -0.033577         1.355270
 C        -1.821339         1.455111         2.044276
 C        -3.026215         2.040406         1.282346
 O        -2.355388         1.973742        -0.026327
 C        -1.045802         1.928037         0.688174
 C        -0.849490         1.631537         3.152941
 C         0.406460         1.076132         2.338597
 H         1.258078         0.175228        -0.256638
 H        -2.213732        -0.233394         0.520324
 H        -1.482219        -0.869398         2.005369
 H        -3.991168         1.573272         1.335517
 H        -3.250747         3.176984         1.671993
 H        -0.325764         2.867107         0.574427
 H        -0.748668         2.693300         3.575359
 H        -1.118899         0.906418         3.921590
 H         1.164705         1.742369         2.193913
 H         0.691778         0.145398         2.883397
