19
Iteration:  3727
 O         0.484756        -0.104634        -0.020714
 C        -0.337346         0.545366         0.991380
 C        -1.653128        -0.112773         1.540705
 C        -1.779650         1.399380         1.949150
 C        -2.976343         2.067094         1.258257
 O        -2.197539         2.023435        -0.034548
 C        -0.966815         1.837513         0.696390
 C        -0.912661         1.620465         3.157867
 C         0.297744         1.019190         2.465401
 H         0.075751        -0.861178        -0.420243
 H        -2.320457        -0.490106         0.772606
 H        -1.686127        -0.829342         2.418920
 H        -4.127179         1.670296         1.244475
 H        -2.900870         3.139432         1.471091
 H        -0.142285         2.806932         0.890024
 H        -0.597839         2.661442         3.510964
 H        -1.034575         1.044274         4.061219
 H         1.076637         1.791370         2.188770
 H         0.836464         0.246459         2.941827
