19
Iteration:  2949
 O         0.615588        -0.273309         0.120599
 C        -0.296032         0.527805         0.969139
 C        -1.608686        -0.042404         1.451945
 C        -1.797825         1.446083         1.912374
 C        -3.092089         1.990530         1.338701
 O        -2.408837         1.989759         0.016179
 C        -1.019298         1.912328         0.626682
 C        -0.820489         1.701330         3.135002
 C         0.401826         1.033877         2.442215
 H         0.282539        -0.001964        -0.776987
 H        -2.228773        -0.293405         0.589332
 H        -1.539442        -0.775598         2.199415
 H        -4.101966         1.451978         1.461292
 H        -3.052390         3.055106         1.744524
 H        -0.283611         2.805692         0.338763
 H        -0.636811         2.808294         3.235950
 H        -1.007752         1.352490         4.186798
 H         1.234268         1.661625         2.322970
 H         0.651482         0.023827         2.911024
