19
Iteration:  3586charge 0 multiplicity 1
 O         0.508287        -0.073317         0.002277
 C        -0.273411         0.544230         0.983062
 C        -1.660919         0.009529         1.544875
 C        -1.782775         1.484297         1.962269
 C        -2.985449         2.001242         1.270581
 O        -2.298858         1.969613        -0.018987
 C        -0.965307         1.841867         0.651702
 C        -0.918733         1.578301         3.211453
 C         0.395086         0.956360         2.361631
 H         0.475563        -1.005980         0.077293
 H        -2.316885        -0.119101         0.683687
 H        -1.849993        -0.674810         2.366247
 H        -3.883347         1.497558         1.152767
 H        -3.251384         3.056959         1.495720
 H        -0.458017         2.853680         0.579069
 H        -0.677806         2.634264         3.581610
 H        -1.254816         0.944184         4.005032
 H         1.211124         1.777544         2.324503
 H         0.791024         0.100736         3.078550
