19
Iteration:  4994
 O         0.453081        -0.075547         0.043770
 C        -0.337949         0.527452         1.000173
 C        -1.663651        -0.003766         1.424444
 C        -1.848717         1.405523         2.027388
 C        -2.941681         2.021507         1.189494
 O        -2.145829         2.111810        -0.027206
 C        -0.889322         1.898805         0.722277
 C        -0.905053         1.577570         3.210250
 C         0.264719         0.847804         2.468836
 H        -0.021261        -0.828086        -0.388924
 H        -2.441576        -0.037482         0.587109
 H        -1.616966        -0.704134         2.262081
 H        -3.862817         1.291248         1.110740
 H        -3.251648         3.135379         1.329641
 H        -0.086385         2.633483         0.503460
 H        -0.733014         2.580027         3.419912
 H        -1.047864         0.966977         4.097254
 H         1.154133         1.518190         2.222300
 H         0.690924        -0.032960         2.990053
