19
Iteration:  2680charge 0 multiplicity 1
 O         0.660561        -0.197794         0.147603
 C        -0.298200         0.498586         0.961539
 C        -1.624134         0.012785         1.526663
 C        -1.773469         1.472599         1.940953
 C        -2.987450         2.116918         1.344470
 O        -2.373820         1.932706         0.002598
 C        -1.055612         1.850155         0.691991
 C        -0.874585         1.594109         3.078967
 C         0.345476         1.009155         2.305330
 H         0.267551        -0.397981        -0.677934
 H        -2.338966        -0.304662         0.740849
 H        -1.678832        -0.773081         2.305416
 H        -3.870259         1.575898         1.332986
 H        -3.406909         3.152009         1.623793
 H        -0.507706         2.826106         0.673087
 H        -0.699913         2.668224         3.273980
 H        -1.281555         1.135718         4.031366
 H         1.128238         1.801175         2.162710
 H         0.857790         0.293185         2.845314
