19
Iteration:  2544charge 0 multiplicity 1
 O         0.614185        -0.176125         0.141044
 C        -0.295453         0.500116         0.993912
 C        -1.651548        -0.057033         1.505628
 C        -1.771215         1.489865         1.958231
 C        -3.045187         2.151712         1.304842
 O        -2.431879         1.917015        -0.050460
 C        -0.994663         1.774726         0.646731
 C        -0.830398         1.610655         3.164000
 C         0.435353         1.063171         2.347286
 H         0.269310        -0.019738        -0.791703
 H        -2.388734        -0.318213         0.712066
 H        -1.591334        -0.906052         2.223951
 H        -4.041898         1.646461         1.393395
 H        -3.220942         3.249100         1.551969
 H        -0.566897         2.735262         0.658472
 H        -0.792816         2.557798         3.751056
 H        -1.112874         0.917423         3.997173
 H         1.035021         1.902513         1.962096
 H         1.169596         0.368526         2.956758
