19
Iteration:   350charge 0 multiplicity 1
 O         0.627915        -0.222317         0.180760
 C        -0.239835         0.447300         1.031799
 C        -1.547873        -0.076157         1.438882
 C        -1.766514         1.509525         1.913050
 C        -3.063975         2.054546         1.361687
 O        -2.510637         1.867938        -0.013494
 C        -1.079599         1.803625         0.681160
 C        -0.831187         1.701752         3.060108
 C         0.406341         1.131919         2.336325
 H         0.803088         0.419099        -0.531324
 H        -2.285793        -0.084576         0.641990
 H        -1.600452        -0.829682         2.236240
 H        -3.959214         1.545040         1.614668
 H        -3.053190         3.114719         1.496185
 H        -0.538138         2.717664         0.425173
 H        -0.785917         2.789421         3.333200
 H        -1.109729         1.158735         3.931703
 H         1.040219         1.975836         2.164928
 H         0.916730         0.370780         3.048506
