19
Iteration:  1630
 O         0.726923        -0.101944         0.267806
 C        -0.341239         0.445762         0.962748
 C        -1.619028        -0.065476         1.527777
 C        -1.784406         1.554292         1.927159
 C        -3.101074         2.067754         1.352897
 O        -2.423222         1.928926        -0.036809
 C        -1.124193         1.831581         0.618908
 C        -0.757786         1.719048         3.021409
 C         0.367805         0.929069         2.342905
 H         0.438861        -0.390448        -0.579828
 H        -2.466446        -0.369203         0.910492
 H        -1.527435        -0.746744         2.335212
 H        -4.106331         1.446999         1.573175
 H        -3.412360         3.087535         1.425072
 H        -0.485869         2.748977         0.283667
 H        -0.197060         2.607312         3.345540
 H        -0.958281         1.305918         4.085898
 H         1.281986         1.643124         2.003872
 H         0.728808         0.042934         2.791223
