19
Iteration:  4099
 O         0.445476        -0.275245         0.043472
 C        -0.262336         0.574081         0.974569
 C        -1.656247         0.083004         1.461072
 C        -1.798008         1.534495         1.916301
 C        -3.024712         2.097326         1.241977
 O        -2.238959         2.050855        -0.031111
 C        -0.990746         1.965516         0.700810
 C        -0.944210         1.378677         3.175233
 C         0.411309         0.938813         2.502964
 H         1.360484        -0.311137         0.286102
 H        -2.263892        -0.220616         0.599082
 H        -1.712965        -0.744504         2.215177
 H        -3.897123         1.430009         0.970661
 H        -3.239870         3.262579         1.411542
 H        -0.412968         3.004739         0.705212
 H        -0.812080         2.346381         3.659187
 H        -1.226563         0.685157         3.972170
 H         1.075180         1.675426         2.379623
 H         0.836618        -0.007220         2.834963
