19
Iteration:  1715charge 0 multiplicity 1
 O         0.563314        -0.054903         0.090264
 C        -0.294694         0.496792         0.992751
 C        -1.623730        -0.031206         1.648178
 C        -1.813045         1.495084         1.944431
 C        -3.106057         2.006949         1.271753
 O        -2.308560         1.882257        -0.010759
 C        -1.009217         1.819293         0.680000
 C        -0.821622         1.737913         3.082217
 C         0.395619         0.980210         2.326928
 H         0.060227        -0.602683        -0.606592
 H        -2.340549        -0.453819         0.901705
 H        -1.598967        -0.705454         2.500476
 H        -3.733963         1.199475         1.298149
 H        -3.412763         3.127449         1.241896
 H        -0.484931         2.757594         0.533421
 H        -0.472825         2.763547         3.355000
 H        -1.034129         1.219188         4.057322
 H         1.204091         1.646528         2.135465
 H         0.847867         0.144550         2.868859
