19
Iteration:  1152
 O         0.494721        -0.137554         0.017146
 C        -0.240753         0.579028         1.020777
 C        -1.522201        -0.063165         1.572227
 C        -1.831724         1.442602         1.950329
 C        -3.013544         1.977789         1.299481
 O        -2.378083         1.840261        -0.020079
 C        -1.119111         1.858398         0.695237
 C        -0.820110         1.818403         3.085290
 C         0.463757         1.042172         2.325294
 H         0.799763        -0.945772         0.469435
 H        -2.208226        -0.281811         0.696262
 H        -1.476883        -0.835980         2.419881
 H        -3.881619         1.307689         1.294272
 H        -3.333068         2.993580         1.743069
 H        -0.737312         2.920266         0.562620
 H        -0.746056         2.958058         3.099055
 H        -1.135283         1.369208         3.997911
 H         1.243660         1.661032         2.261897
 H         0.448572         0.138965         3.021542
