19
Iteration:  4226charge 0 multiplicity 1
 O         0.505408        -0.195245         0.054920
 C        -0.291801         0.504903         1.006984
 C        -1.642751        -0.059111         1.388029
 C        -1.877169         1.450148         1.889697
 C        -3.011562         2.201056         1.237351
 O        -2.206712         2.140218         0.023098
 C        -0.909754         1.847275         0.774139
 C        -0.889990         1.416260         3.214586
 C         0.303135         1.013731         2.407557
 H         0.243942        -1.132460         0.221343
 H        -2.186049        -0.230542         0.456522
 H        -1.673613        -0.846814         2.132683
 H        -4.056608         1.625045         1.075521
 H        -3.238816         3.226374         1.574711
 H        -0.170589         2.584351         0.576098
 H        -0.800717         2.500865         3.546034
 H        -1.346615         0.885431         4.022037
 H         1.075410         1.913903         2.208828
 H         1.051995         0.261517         2.828168
