19
Iteration:  1027charge 0 multiplicity 1
 O         0.619244        -0.147218         0.070462
 C        -0.302805         0.522658         0.929273
 C        -1.565098        -0.015758         1.653566
 C        -1.785108         1.461261         2.025608
 C        -3.131236         1.915514         1.296504
 O        -2.461419         1.898893        -0.097532
 C        -1.118248         1.810908         0.666839
 C        -0.708252         1.825282         3.100138
 C         0.419103         1.073161         2.269831
 H         1.100124        -0.666093         0.751641
 H        -2.413036        -0.325054         1.088412
 H        -1.601977        -0.711876         2.509262
 H        -4.033785         1.300198         1.316129
 H        -3.615017         2.875883         1.581853
 H        -0.549140         2.819241         0.426827
 H        -0.610665         2.857814         3.422818
 H        -0.886048         1.168406         4.079229
 H         1.375091         1.686089         2.088553
 H         0.840670         0.244543         2.766278
