19
Iteration:  3973
 O         0.490505        -0.146005         0.075330
 C        -0.335526         0.608573         1.002768
 C        -1.624853        -0.039437         1.447476
 C        -1.873184         1.459487         1.979484
 C        -3.023839         2.111202         1.133171
 O        -2.222782         2.093502        -0.059111
 C        -0.944792         1.965484         0.734001
 C        -0.898466         1.426309         3.254697
 C         0.428516         0.900699         2.411569
 H         0.180147        -1.099043         0.041079
 H        -2.237371        -0.331390         0.628105
 H        -1.456141        -0.843381         2.163241
 H        -4.000182         1.615950         1.114997
 H        -3.434671         3.244816         1.281258
 H        -0.246507         2.918007         0.817331
 H        -0.729287         2.397832         3.779816
 H        -1.317481         0.669261         3.978467
 H         1.234196         1.482738         2.410017
 H         0.828296         0.001006         2.874482
