19
Iteration:  4578
 O         0.451090         0.008914        -0.036165
 C        -0.314351         0.438104         1.016834
 C        -1.712667        -0.060112         1.470364
 C        -1.815980         1.437804         1.984767
 C        -2.909585         2.191811         1.259394
 O        -2.197199         2.070321        -0.083915
 C        -0.946005         1.755860         0.719524
 C        -0.923861         1.508772         3.207663
 C         0.329469         0.889873         2.478518
 H         0.961481        -0.742329         0.234133
 H        -2.425381        -0.256697         0.688866
 H        -1.823812        -0.781114         2.201221
 H        -3.977195         1.799568         1.277852
 H        -2.936880         3.290191         1.445755
 H        -0.346087         2.700119         0.652766
 H        -0.810584         2.575675         3.364026
 H        -1.232524         0.945722         4.099037
 H         1.091799         1.652704         2.386320
 H         0.788027         0.000639         2.830141
