19
Iteration:  1660
 O         0.596587        -0.235322         0.189754
 C        -0.247911         0.523779         0.987003
 C        -1.582971        -0.028570         1.567418
 C        -1.873398         1.430330         1.969928
 C        -3.022258         2.064142         1.302116
 O        -2.384463         1.894253         0.010389
 C        -1.045245         1.835522         0.650840
 C        -0.892951         1.675921         3.067310
 C         0.418303         1.129360         2.303681
 H         0.283828        -0.073301        -0.742459
 H        -2.246092        -0.271167         0.742530
 H        -1.547349        -0.745807         2.384383
 H        -4.017580         1.738911         1.331414
 H        -3.123028         3.213500         1.384613
 H        -0.585202         2.742941         0.253034
 H        -0.464855         2.620813         3.432656
 H        -0.951966         0.920506         3.860700
 H         1.152772         1.836779         2.117524
 H         0.896610         0.291764         2.773689
