19
Iteration:  2646charge 0 multiplicity 1
 O         0.615307        -0.124077         0.260532
 C        -0.363504         0.518674         1.001913
 C        -1.601225        -0.037045         1.531108
 C        -1.807819         1.429647         1.982104
 C        -2.992556         2.246962         1.232882
 O        -2.442890         1.911828        -0.073794
 C        -1.111212         1.795863         0.633826
 C        -0.757265         1.455271         3.186692
 C         0.413102         1.076296         2.283816
 H         0.371053        -0.192225        -0.675659
 H        -2.328837        -0.196567         0.714290
 H        -1.486907        -0.828454         2.336841
 H        -3.867680         1.750613         1.224279
 H        -2.975920         3.381776         1.492102
 H        -0.459651         2.677733         0.526659
 H        -0.501224         2.416895         3.662449
 H        -1.080823         0.681593         3.938960
 H         1.002630         1.993338         1.941331
 H         1.045525         0.271083         2.541419
