19
Iteration:    36
 O         0.564354        -0.217630         0.106326
 C        -0.252529         0.533439         1.032661
 C        -1.502916        -0.072217         1.664832
 C        -1.838607         1.459770         2.001883
 C        -3.093727         1.926295         1.255929
 O        -2.465238         1.861569        -0.093348
 C        -1.156960         1.845792         0.661756
 C        -0.777427         1.702791         3.112243
 C         0.459212         1.202818         2.226658
 H         1.475945         0.099283         0.145817
 H        -2.246234        -0.713230         1.046964
 H        -1.288018        -0.605915         2.626771
 H        -4.086318         1.374308         1.353493
 H        -3.280807         2.963846         1.513149
 H        -0.707930         2.898085         0.648412
 H        -0.709732         2.747031         3.254119
 H        -1.020310         1.238195         4.159309
 H         0.700350         2.151407         1.776293
 H         1.359326         0.738792         2.701724
