19
Iteration:  2245
 O         0.694470        -0.163973         0.206742
 C        -0.319180         0.581384         0.961619
 C        -1.591397        -0.081704         1.545396
 C        -1.841363         1.513364         1.938171
 C        -3.046923         2.064038         1.337363
 O        -2.446805         1.950391        -0.040436
 C        -1.139472         1.832086         0.623295
 C        -0.766256         1.657076         3.119234
 C         0.437144         0.992369         2.305029
 H         0.222190        -0.495708        -0.604964
 H        -2.292753        -0.332346         0.775737
 H        -1.584628        -0.845308         2.270073
 H        -3.960927         1.417117         1.433923
 H        -3.120119         3.181056         1.669145
 H        -0.511827         2.804726         0.409505
 H        -0.635471         2.680970         3.495860
 H        -1.093941         1.123131         3.999232
 H         1.221750         1.592786         2.144940
 H         0.839133        -0.018706         2.698512
