19
Iteration:   682charge 0 multiplicity 1
 O         0.491235        -0.228951        -0.025957
 C        -0.230079         0.538602         1.019651
 C        -1.493382        -0.059360         1.610522
 C        -1.858139         1.415005         1.936995
 C        -3.096929         1.972395         1.294266
 O        -2.348567         1.976706         0.015576
 C        -1.049698         1.836736         0.746956
 C        -0.878111         1.735736         3.046759
 C         0.401942         1.076735         2.329830
 H         1.424176        -0.278913         0.253941
 H        -2.160201        -0.469896         0.845264
 H        -1.326813        -0.762971         2.422713
 H        -4.086200         1.428687         1.201643
 H        -3.391292         3.042807         1.449109
 H        -0.610475         2.867813         0.799843
 H        -0.602451         2.818351         3.063458
 H        -1.056302         1.503556         4.100775
 H         1.115192         1.855945         2.181455
 H         0.693113         0.225632         2.932889
