19
Iteration:  4472charge 0 multiplicity 1
 O         0.439074        -0.159566         0.094091
 C        -0.314796         0.459931         0.981163
 C        -1.571760        -0.164530         1.479272
 C        -1.851886         1.351401         1.913575
 C        -3.018600         2.276088         1.250029
 O        -2.229040         2.223846        -0.047038
 C        -0.978486         1.834369         0.719743
 C        -0.916659         1.480916         3.122787
 C         0.407089         0.990225         2.395221
 H         0.934074        -0.877356         0.478428
 H        -2.163350        -0.510962         0.624955
 H        -1.533942        -0.851597         2.375601
 H        -3.902070         1.702907         1.033612
 H        -3.234905         3.269376         1.723750
 H        -0.448748         2.773223         0.921153
 H        -0.907945         2.470686         3.571816
 H        -1.326017         0.826517         3.943300
 H         1.161465         1.758657         2.228102
 H         0.835872         0.070510         2.906632
