19
Iteration:  4415charge 0 multiplicity 1
 O         0.520885        -0.006996         0.042635
 C        -0.267341         0.530929         1.013489
 C        -1.639550        -0.010677         1.431048
 C        -1.793269         1.599436         1.947691
 C        -2.968940         2.175678         1.288569
 O        -2.310043         1.938784        -0.053804
 C        -0.944610         1.916351         0.702042
 C        -0.880205         1.527361         3.109399
 C         0.288775         0.696986         2.479603
 H         0.911679        -0.901554         0.216283
 H        -2.201999        -0.384659         0.547526
 H        -1.828966        -0.625427         2.288324
 H        -3.955684         1.619581         1.378765
 H        -3.246444         3.246363         1.480382
 H        -0.369842         2.875542         0.463219
 H        -0.590231         2.476890         3.467278
 H        -1.409952         1.065288         3.958040
 H         1.273649         1.104108         2.586558
 H         0.343260        -0.215614         3.033750
