19
Iteration:  1317
 O         0.520112        -0.141125         0.061277
 C        -0.243515         0.539058         1.038875
 C        -1.492029        -0.033278         1.560320
 C        -1.821667         1.468083         1.969169
 C        -3.094409         2.108861         1.224489
 O        -2.372937         1.805746        -0.007794
 C        -1.036881         1.805116         0.704204
 C        -0.842454         1.645923         3.105162
 C         0.423143         1.173094         2.322314
 H        -0.037088        -0.959280        -0.208305
 H        -2.147040        -0.430075         0.771902
 H        -1.460437        -0.733886         2.468951
 H        -3.845003         1.477188         1.583937
 H        -3.173919         3.163567         1.375269
 H        -0.525956         2.821706         0.560528
 H        -0.882424         2.744615         3.502061
 H        -1.046539         0.988612         3.939998
 H         1.086993         1.921631         1.996566
 H         0.807727         0.280486         2.966720
