19
Iteration:  4673charge 0 multiplicity 1
 O         0.680516        -0.088486         0.093201
 C        -0.302904         0.483692         0.924394
 C        -1.687768        -0.079744         1.416843
 C        -1.899940         1.356102         1.977643
 C        -2.960402         2.318875         1.232531
 O        -2.206691         2.002111         0.013716
 C        -1.053982         1.912527         0.841898
 C        -0.902591         1.552867         3.162604
 C         0.250104         0.834502         2.332729
 H         0.371037        -0.767153        -0.512800
 H        -2.544605        -0.421130         0.738377
 H        -1.657911        -0.919712         2.242787
 H        -4.027383         2.203348         1.165678
 H        -2.727889         3.349831         1.485506
 H        -0.452609         2.815646         1.014528
 H        -0.603033         2.641200         3.193900
 H        -1.181650         0.965780         4.033329
 H         1.177900         1.506598         2.288980
 H         0.595720        -0.143474         2.886843
