19
Iteration:  2141charge 0 multiplicity 1
 O         0.655753         0.001475         0.140721
 C        -0.327738         0.520236         0.974787
 C        -1.705103        -0.022119         1.589478
 C        -1.869007         1.558247         1.996753
 C        -3.039081         2.147406         1.219431
 O        -2.395655         1.722756        -0.023217
 C        -1.062200         1.832245         0.638198
 C        -0.697534         1.610655         3.207926
 C         0.409950         0.952420         2.298238
 H         0.302487        -0.266297        -0.684530
 H        -2.395546        -0.447177         0.809940
 H        -1.555005        -0.816713         2.416818
 H        -4.100325         1.727280         1.453429
 H        -3.201950         3.246399         1.203755
 H        -0.427007         2.723598         0.134324
 H        -0.383885         2.574523         3.647021
 H        -1.199606         1.011216         4.008123
 H         1.268528         1.734881         2.188624
 H         0.855632         0.124823         2.760585
