19
Iteration:  4907charge 0 multiplicity 1
 O         0.624709        -0.282333         0.213476
 C        -0.253471         0.533336         0.981037
 C        -1.681985         0.049994         1.414179
 C        -1.837676         1.481229         1.961197
 C        -3.033912         2.198974         1.249247
 O        -2.316214         2.041162        -0.002665
 C        -0.999023         1.894882         0.708028
 C        -0.858880         1.501346         3.173136
 C         0.329944         0.870319         2.336795
 H         0.627345         0.008824        -0.741789
 H        -2.288054         0.018338         0.474615
 H        -2.064570        -0.838072         1.938499
 H        -4.052311         1.654072         1.253906
 H        -3.135028         3.289174         1.414468
 H        -0.421451         2.946759         0.717532
 H        -0.588883         2.501879         3.618348
 H        -1.149829         0.810901         4.071264
 H         1.218952         1.533264         2.217136
 H         0.776692        -0.039476         2.698835
