19
Iteration:   420charge 0 multiplicity 1
 O         0.423380        -0.080665        -0.001996
 C        -0.235307         0.544322         0.932080
 C        -1.516873        -0.025045         1.485336
 C        -1.807732         1.377336         2.018194
 C        -3.025299         1.941670         1.292522
 O        -2.359164         1.873588         0.015963
 C        -1.000529         1.812538         0.683448
 C        -0.898538         1.787255         3.065240
 C         0.419979         1.087392         2.516046
 H         0.529995        -0.988014         0.314119
 H        -2.134093        -0.219616         0.578465
 H        -1.574134        -0.902325         2.158481
 H        -3.939443         1.287971         1.252701
 H        -3.002242         2.994913         1.536847
 H        -0.411079         2.859158         0.388021
 H        -0.611072         2.838232         3.011954
 H        -1.057689         1.550535         4.199871
 H         1.230713         1.813032         2.285486
 H         0.543694         0.165563         3.044664
