19
Iteration:  2232charge 0 multiplicity 1
 O         0.683872        -0.144551         0.247281
 C        -0.292117         0.479626         0.953679
 C        -1.572085        -0.070248         1.578026
 C        -1.774664         1.420183         2.013317
 C        -3.118653         2.020513         1.254994
 O        -2.452352         2.079969        -0.011772
 C        -1.131608         1.859752         0.648152
 C        -0.734548         1.683688         3.052235
 C         0.359621         0.977967         2.241970
 H         0.406447        -0.689778        -0.507911
 H        -2.278313        -0.458111         0.814924
 H        -1.410662        -0.758064         2.404075
 H        -4.125236         1.386552         1.193778
 H        -3.515785         3.096017         1.520706
 H        -0.512270         2.909761         0.680696
 H        -0.383927         2.716398         3.226425
 H        -0.876051         1.138057         3.987731
 H         1.260369         1.536083         2.085675
 H         0.734709         0.095577         2.832815
