19
Iteration:  2155
 O         0.632557        -0.118218         0.093865
 C        -0.321542         0.627850         1.022347
 C        -1.613010         0.030842         1.614341
 C        -1.788889         1.562050         2.029016
 C        -3.032115         2.117564         1.222621
 O        -2.396251         1.720021        -0.050235
 C        -1.073683         1.839038         0.698647
 C        -0.828951         1.556268         3.118079
 C         0.394782         1.009801         2.316699
 H         0.099584        -0.160488        -0.789562
 H        -2.378834        -0.258428         0.890363
 H        -1.503437        -0.607372         2.486632
 H        -4.082293         1.602833         1.195586
 H        -2.911021         3.242249         1.352109
 H        -0.534674         2.881939         0.548413
 H        -0.637684         2.530448         3.620046
 H        -0.901971         0.817849         3.905574
 H         1.145365         1.650876         2.044111
 H         0.920564         0.136178         2.702323
