19
Iteration:  3582
 O         0.496170        -0.057597        -0.005321
 C        -0.259293         0.523760         0.995305
 C        -1.619089         0.038303         1.531416
 C        -1.811568         1.462169         1.997348
 C        -2.979375         1.995369         1.276829
 O        -2.323460         1.966209        -0.044993
 C        -0.940247         1.883854         0.590438
 C        -0.887610         1.601001         3.224178
 C         0.385292         0.908541         2.408838
 H         0.398305        -1.063029         0.018909
 H        -2.293394        -0.160110         0.649098
 H        -1.866713        -0.662471         2.378733
 H        -4.038836         1.441426         1.228176
 H        -3.198003         3.017271         1.489572
 H        -0.441076         2.780020         0.571535
 H        -0.688719         2.611137         3.551586
 H        -1.338191         1.031582         4.085506
 H         1.143853         1.765598         2.403443
 H         0.742353         0.141842         3.039205
