19
Iteration:  3862charge 0 multiplicity 1
 O         0.533636        -0.028644         0.021990
 C        -0.356489         0.505302         1.029982
 C        -1.716307         0.010593         1.522946
 C        -1.795133         1.513546         1.973625
 C        -2.971935         2.084187         1.202155
 O        -2.222708         2.000977        -0.086614
 C        -0.966070         1.854872         0.752300
 C        -0.909556         1.486325         3.234532
 C         0.394868         0.899101         2.352182
 H         0.457355        -0.985136         0.013781
 H        -2.517234        -0.247649         0.811650
 H        -1.795156        -0.697863         2.311067
 H        -3.935368         1.533605         1.062970
 H        -3.303142         3.172387         1.432940
 H        -0.095412         2.722646         0.737594
 H        -0.605056         2.439172         3.609645
 H        -1.347463         0.921133         4.117835
 H         1.027757         1.661971         2.127866
 H         0.826589         0.075411         2.900758
