19
Iteration:  1873charge 0 multiplicity 1
 O         0.724459        -0.063392         0.143267
 C        -0.301137         0.515860         0.981654
 C        -1.632074        -0.086018         1.631519
 C        -1.874013         1.451414         1.987860
 C        -3.073899         2.072993         1.321325
 O        -2.407182         1.904551        -0.028680
 C        -1.103145         1.793143         0.662012
 C        -0.786236         1.738397         3.045500
 C         0.397444         0.902586         2.316689
 H         0.510336         0.052011        -0.851959
 H        -2.381730        -0.313596         0.914990
 H        -1.447299        -0.764525         2.452187
 H        -4.064436         1.562357         1.110210
 H        -3.323003         3.255747         1.452295
 H        -0.644427         2.849250         0.594675
 H        -0.600333         2.816697         2.934065
 H        -0.857538         1.332015         4.101585
 H         1.391390         1.399312         2.121379
 H         0.653977         0.078085         2.895790
