19
Iteration:  2753charge 0 multiplicity 1
 O         0.540416        -0.124395         0.142426
 C        -0.322082         0.546025         0.948358
 C        -1.615398        -0.003426         1.574165
 C        -1.765227         1.462710         1.977131
 C        -2.964217         2.079978         1.235212
 O        -2.325318         1.905249        -0.026755
 C        -1.053902         1.828609         0.656926
 C        -0.827048         1.555616         3.143925
 C         0.331534         1.086625         2.366944
 H         0.278989        -0.246293        -0.824146
 H        -2.397639        -0.242570         0.845107
 H        -1.592897        -0.831633         2.336042
 H        -3.940273         1.472343         1.471148
 H        -3.278792         3.088934         1.286337
 H        -0.430006         2.693426         0.460524
 H        -0.701495         2.547775         3.568642
 H        -0.896579         0.885006         4.004553
 H         1.225493         1.795846         2.278878
 H         0.724553         0.062697         2.804021
