19
Iteration:  4538charge 0 multiplicity 1
 O         0.550168         0.011110         0.041999
 C        -0.306335         0.526268         0.977517
 C        -1.687497        -0.031319         1.493000
 C        -1.858102         1.379793         1.946497
 C        -2.950785         2.295798         1.220769
 O        -2.271489         1.993718        -0.077635
 C        -1.073255         1.839167         0.727838
 C        -0.816421         1.505278         3.202906
 C         0.317414         0.767394         2.422785
 H         0.918320        -0.841092         0.450969
 H        -2.339885        -0.213207         0.652678
 H        -1.655273        -0.905125         2.250354
 H        -3.966410         1.983986         1.194241
 H        -2.782602         3.340860         1.469156
 H        -0.451455         2.782677         0.792427
 H        -0.538796         2.583440         3.269958
 H        -1.084584         1.101038         4.209686
 H         1.266673         1.299908         2.323019
 H         0.506515        -0.200026         2.963999
