19
Iteration:   988
 O         0.518556         0.005926        -0.001868
 C        -0.273556         0.552722         0.995301
 C        -1.592151        -0.082477         1.640286
 C        -1.821044         1.438555         1.970663
 C        -2.998233         2.032369         1.323351
 O        -2.428391         1.691651        -0.040692
 C        -1.077427         1.765308         0.674046
 C        -0.796646         1.846249         3.060960
 C         0.448045         1.077115         2.356006
 H         0.675364        -0.981038         0.106837
 H        -2.266752        -0.448557         0.793778
 H        -1.363642        -0.840839         2.435049
 H        -4.064643         1.740138         1.539791
 H        -2.821997         3.140125         1.383208
 H        -0.568760         2.672028         0.628508
 H        -0.745764         2.951833         3.228932
 H        -0.993426         1.393348         3.965749
 H         1.209814         1.819611         2.126856
 H         0.659193         0.222522         3.128549
