19
Iteration:  1437charge 0 multiplicity 1
 O         0.499459        -0.222596         0.124599
 C        -0.296836         0.576108         1.019910
 C        -1.594371         0.021692         1.607738
 C        -1.811378         1.497374         1.913593
 C        -3.064217         2.031243         1.213621
 O        -2.322493         1.863174        -0.005756
 C        -1.039024         1.847122         0.655402
 C        -0.793277         1.581227         3.183295
 C         0.410931         1.134053         2.348594
 H         0.235653         0.134522        -0.690969
 H        -2.049949        -0.329813         0.620275
 H        -1.659468        -0.854885         2.307452
 H        -3.777138         1.327093         1.356288
 H        -3.348104         3.106327         1.198588
 H        -0.409813         2.681619         0.279526
 H        -0.587976         2.610219         3.714880
 H        -1.165442         1.009852         4.041402
 H         1.016486         1.969871         2.222734
 H         1.006746         0.216334         2.659990
