19
Iteration:  2324
 O         0.565493        -0.136209         0.107552
 C        -0.294813         0.493309         0.953627
 C        -1.598652        -0.084031         1.609224
 C        -1.845233         1.474345         1.997683
 C        -3.109278         1.938203         1.273560
 O        -2.282510         2.038423         0.005020
 C        -1.037328         1.843183         0.703091
 C        -0.829715         1.776604         3.071769
 C         0.421245         0.965649         2.279142
 H         0.131541        -0.482268        -0.735426
 H        -2.397003        -0.393121         0.926741
 H        -1.452334        -0.818759         2.409423
 H        -3.840916         1.132730         1.201597
 H        -3.664792         2.978070         1.533801
 H        -0.345684         2.803892         0.882298
 H        -0.716944         2.876640         3.108973
 H        -0.892944         1.288432         4.057924
 H         1.292818         1.511914         2.100219
 H         0.722778         0.175621         2.968316
