19
Iteration:  1649charge 0 multiplicity 1
 O         0.703469        -0.207974         0.200049
 C        -0.254979         0.572498         0.960880
 C        -1.704068         0.020121         1.607191
 C        -1.806706         1.483089         1.968072
 C        -3.037465         2.048007         1.294905
 O        -2.451867         1.903414         0.002299
 C        -1.041440         1.809363         0.564221
 C        -0.819451         1.676114         3.095172
 C         0.402145         1.011512         2.276030
 H         0.552568        -0.225337        -0.717980
 H        -2.344260        -0.294647         0.793227
 H        -1.811773        -0.730701         2.387206
 H        -3.898979         1.423661         1.477334
 H        -3.192230         3.112733         1.673348
 H        -0.425043         2.716520         0.470329
 H        -0.829209         2.749222         3.449997
 H        -1.054492         1.114740         4.037820
 H         1.136251         1.710973         2.031407
 H         0.822787         0.234799         2.875448
