19
Iteration:  3667
 O         0.587888        -0.242208         0.138536
 C        -0.298082         0.570635         0.905585
 C        -1.644157         0.000837         1.442225
 C        -1.801640         1.488547         2.008349
 C        -2.987903         2.080679         1.326199
 O        -2.370213         1.989711        -0.010433
 C        -1.034896         1.859939         0.663650
 C        -0.870547         1.649869         3.135888
 C         0.361230         0.875308         2.390316
 H         1.161484         0.402514        -0.282003
 H        -2.350523        -0.072457         0.598952
 H        -1.663766        -0.854322         2.111968
 H        -3.903033         1.499059         1.362938
 H        -3.211668         3.174287         1.348785
 H        -0.449199         2.919334         0.592082
 H        -0.605524         2.665090         3.368976
 H        -1.229887         1.143787         4.101352
 H         1.285873         1.396162         2.387365
 H         0.627574        -0.157172         2.806208
