19
Iteration:  1316
 O         0.521514        -0.142155         0.056719
 C        -0.253373         0.535585         1.039582
 C        -1.486627        -0.033231         1.564307
 C        -1.837751         1.475922         1.970478
 C        -3.089052         2.097702         1.221911
 O        -2.370177         1.806788        -0.001937
 C        -1.027812         1.806286         0.707951
 C        -0.843159         1.645354         3.104029
 C         0.424925         1.167775         2.324994
 H        -0.057268        -0.919820        -0.220108
 H        -2.125033        -0.410254         0.775219
 H        -1.453191        -0.722105         2.475406
 H        -3.896866         1.496231         1.539725
 H        -3.198259         3.177703         1.368385
 H        -0.507688         2.808936         0.589208
 H        -0.869904         2.755552         3.460552
 H        -1.052574         0.987268         3.946959
 H         1.091914         1.936554         1.943448
 H         0.839131         0.300923         2.954316
