19
Iteration:  1717charge 0 multiplicity 1
 O         0.574510        -0.059985         0.091640
 C        -0.294515         0.484719         1.007843
 C        -1.627990        -0.042067         1.628930
 C        -1.814075         1.501649         1.954201
 C        -3.093196         2.007295         1.268588
 O        -2.326189         1.881769        -0.015341
 C        -1.022260         1.840362         0.676587
 C        -0.806710         1.748925         3.082774
 C         0.402801         0.964740         2.321933
 H         0.085301        -0.564335        -0.575959
 H        -2.388696        -0.463913         0.951267
 H        -1.601970        -0.687357         2.462150
 H        -3.757796         1.134175         1.327354
 H        -3.397060         3.089747         1.234841
 H        -0.444404         2.810195         0.520685
 H        -0.439097         2.758287         3.367908
 H        -1.133398         1.261488         4.095517
 H         1.220173         1.698179         2.216588
 H         0.792900         0.141336         2.800588
