19
Iteration:  3103charge 0 multiplicity 1
 O         0.587540        -0.126311         0.062989
 C        -0.317076         0.451374         1.017442
 C        -1.654721        -0.129697         1.568324
 C        -1.788874         1.449362         1.969929
 C        -3.025398         2.038189         1.293346
 O        -2.307766         2.013693        -0.031289
 C        -1.036997         1.835526         0.698073
 C        -0.849961         1.712260         3.103630
 C         0.386848         1.063586         2.350093
 H        -0.110661        -0.404145        -0.547585
 H        -2.237219        -0.545392         0.747500
 H        -1.506869        -0.873934         2.318992
 H        -3.886675         1.404016         1.263513
 H        -3.307170         3.047223         1.552246
 H        -0.471501         2.712505         0.640396
 H        -0.667937         2.816728         3.335622
 H        -1.088086         1.137408         4.030837
 H         1.231769         1.708892         2.081005
 H         0.841303         0.146352         2.971619
