19
Iteration:  1344charge 0 multiplicity 1
 O         0.663483        -0.134041         0.131015
 C        -0.342793         0.569400         0.959740
 C        -1.542967         0.031183         1.537740
 C        -1.809216         1.452672         1.989892
 C        -3.069232         2.077479         1.277731
 O        -2.490520         1.840940        -0.003319
 C        -1.049724         1.846586         0.544150
 C        -0.812925         1.634458         3.109510
 C         0.417921         1.033222         2.368509
 H         0.737138        -1.051371         0.584008
 H        -2.282902        -0.354733         0.832016
 H        -1.502836        -0.651881         2.343014
 H        -4.029976         1.505347         1.621751
 H        -2.885874         3.135103         1.552293
 H        -0.558001         2.775316         0.342883
 H        -0.693544         2.654449         3.316693
 H        -1.152356         1.274208         4.109465
 H         1.076096         1.860617         1.928620
 H         0.864222         0.193516         2.784489
