19
Iteration:    92charge 0 multiplicity 1
 O         0.788739        -0.096791         0.124846
 C        -0.251573         0.561479         0.984058
 C        -1.547193        -0.012850         1.711214
 C        -1.861878         1.464225         1.965553
 C        -3.097771         1.951272         1.293859
 O        -2.523970         1.800271        -0.055931
 C        -1.204565         1.846951         0.676146
 C        -0.736493         1.785796         2.979078
 C         0.429350         1.011379         2.309589
 H         0.333473        -0.560285        -0.581045
 H        -2.323855        -0.382490         0.971791
 H        -1.487185        -0.643819         2.657529
 H        -4.061136         1.349676         1.320746
 H        -3.331335         2.996348         1.469560
 H        -0.866293         2.927339         0.698770
 H        -0.602009         2.811686         3.165035
 H        -0.978575         1.525417         4.076405
 H         1.294206         1.677876         2.159532
 H         0.866517         0.130997         2.834362
