19
Iteration:   777charge 0 multiplicity 1
 O         0.520025        -0.182997         0.041059
 C        -0.244400         0.442803         0.953795
 C        -1.544685        -0.091663         1.517100
 C        -1.818446         1.419667         1.948777
 C        -3.012410         2.000007         1.376161
 O        -2.407468         1.989338         0.025334
 C        -1.022744         1.769611         0.615489
 C        -0.902533         1.822262         3.063682
 C         0.408983         1.139276         2.347496
 H         1.125216        -0.817405         0.534618
 H        -2.243353        -0.386707         0.681566
 H        -1.393433        -0.945544         2.283734
 H        -3.911900         1.433548         1.591274
 H        -3.245549         2.977458         1.765050
 H        -0.388551         2.675935         0.553333
 H        -0.932989         2.885256         3.223845
 H        -1.210024         1.424259         4.050645
 H         1.162798         1.933629         2.172897
 H         0.702292         0.286110         3.111582
