19
Iteration:   645
 O         0.572591        -0.143235         0.193098
 C        -0.321975         0.490346         1.045709
 C        -1.613395        -0.043084         1.596154
 C        -1.808800         1.465224         1.909793
 C        -3.095823         1.972306         1.283144
 O        -2.401016         2.008625        -0.034523
 C        -1.075990         1.779744         0.645618
 C        -0.726145         1.642261         3.064506
 C         0.362118         1.079931         2.235683
 H         1.424069         0.398464         0.284114
 H        -2.372084        -0.228081         0.780003
 H        -1.634080        -0.857448         2.385527
 H        -3.849719         1.196170         1.433096
 H        -3.412596         2.945104         1.723367
 H        -0.374004         2.752155         0.654160
 H        -0.573528         2.677125         3.298312
 H        -0.999974         1.031562         3.924522
 H         1.143112         1.727979         1.889130
 H         1.089731         0.259334         2.632250
