19
Iteration:  3477
 O         0.515673        -0.387198         0.174131
 C        -0.281117         0.640228         0.904501
 C        -1.551127        -0.057010         1.422167
 C        -1.802906         1.440413         1.922672
 C        -3.051038         2.109040         1.280022
 O        -2.360145         1.984012         0.030486
 C        -1.073991         1.916026         0.678593
 C        -0.867789         1.570702         3.202725
 C         0.405809         1.074536         2.361801
 H         1.032244         0.228617        -0.442645
 H        -2.128098        -0.316373         0.522697
 H        -1.446528        -0.851548         2.118682
 H        -3.950470         1.565056         1.167944
 H        -3.158901         3.275382         1.628151
 H        -0.524426         3.012908         0.641080
 H        -0.909354         2.636937         3.638309
 H        -1.060943         0.905056         4.028226
 H         1.162825         1.718548         2.103350
 H         0.989933         0.330279         2.964674
