19
Iteration:  4078
 O         0.480060        -0.218616         0.123400
 C        -0.264713         0.533161         1.003284
 C        -1.601660         0.020404         1.290234
 C        -1.810260         1.482286         1.984523
 C        -2.996510         2.147444         1.316040
 O        -2.305257         2.096744        -0.028042
 C        -0.925091         1.850845         0.727164
 C        -0.933027         1.520993         3.190346
 C         0.308071         0.921927         2.374462
 H         1.327574        -0.628626         0.489617
 H        -2.159978        -0.084825         0.361407
 H        -1.655692        -0.932748         1.877367
 H        -3.889306         1.391021         1.170131
 H        -3.235862         3.186303         1.638768
 H        -0.198328         2.685552         0.421263
 H        -0.788625         2.394587         3.763070
 H        -1.316023         0.729810         3.870191
 H         0.949071         1.742885         2.168375
 H         0.679789         0.139814         2.991269
