19
Iteration:  4473charge 0 multiplicity 1
 O         0.441759        -0.168987         0.086819
 C        -0.314682         0.463335         0.981673
 C        -1.570286        -0.159433         1.475469
 C        -1.850330         1.348630         1.916494
 C        -3.010165         2.266125         1.245880
 O        -2.232511         2.231108        -0.045250
 C        -0.973912         1.844788         0.720994
 C        -0.925005         1.476999         3.129926
 C         0.400672         0.992862         2.387894
 H         0.936402        -0.893717         0.523519
 H        -2.159701        -0.526925         0.629132
 H        -1.509104        -0.865982         2.391366
 H        -3.927482         1.706425         1.065916
 H        -3.265563         3.278775         1.713539
 H        -0.450172         2.749096         0.840692
 H        -0.905313         2.495018         3.616854
 H        -1.325799         0.845947         3.995973
 H         1.187406         1.770905         2.225809
 H         0.829688         0.048242         2.932840
