19
Iteration:   674charge 0 multiplicity 1
 O         0.528157        -0.223570         0.025929
 C        -0.274384         0.553526         0.963117
 C        -1.514752        -0.051479         1.592269
 C        -1.889558         1.365022         1.992483
 C        -3.154542         2.016699         1.226427
 O        -2.328403         1.999128        -0.005669
 C        -1.079782         1.839141         0.772146
 C        -0.781213         1.738363         3.068022
 C         0.386788         1.039001         2.319059
 H         1.397729        -0.141674         0.407436
 H        -2.304567        -0.545656         1.107163
 H        -1.258213        -0.711841         2.399006
 H        -3.900968         1.237057         1.204707
 H        -3.445821         2.985971         1.615572
 H        -0.560309         2.715751         0.771811
 H        -0.717197         2.860026         2.963975
 H        -0.974186         1.444354         4.115270
 H         1.183342         1.859999         2.011910
 H         0.900705         0.271308         2.781011
