19
Iteration:  4112charge 0 multiplicity 1
 O         0.441200        -0.217180         0.078100
 C        -0.297561         0.563743         0.971591
 C        -1.625638         0.009224         1.491904
 C        -1.857416         1.454388         1.983900
 C        -2.985189         2.141213         1.166659
 O        -2.198920         2.063591        -0.107685
 C        -0.994689         1.947160         0.800807
 C        -0.866203         1.472379         3.168637
 C         0.313255         0.847649         2.385361
 H         1.386924         0.120134         0.083498
 H        -2.406688        -0.306832         0.833126
 H        -1.455016        -0.681490         2.337475
 H        -4.025173         1.545718         1.237273
 H        -3.289339         3.134941         1.551138
 H        -0.415262         2.911272         0.829691
 H        -0.624556         2.361266         3.645243
 H        -1.362783         0.788562         3.880956
 H         1.084079         1.601131         2.393533
 H         0.824781         0.144691         2.956054
