19
Iteration:  2976charge 0 multiplicity 1
 O         0.546994        -0.138239         0.070777
 C        -0.312984         0.548043         0.983680
 C        -1.566667         0.000007         1.581969
 C        -1.802922         1.504138         1.936321
 C        -3.099258         1.986136         1.236992
 O        -2.292006         1.971847        -0.018050
 C        -1.044343         1.850130         0.750208
 C        -0.812337         1.657823         3.089615
 C         0.391235         0.960759         2.366359
 H        -0.106928        -0.593677        -0.508135
 H        -2.309382        -0.352143         0.840676
 H        -1.431352        -0.766030         2.431193
 H        -3.969128         1.299035         1.352904
 H        -3.345178         3.024275         1.429031
 H        -0.466821         2.761176         0.843185
 H        -0.617561         2.687150         3.306320
 H        -1.064037         1.206136         4.022213
 H         1.313634         1.613222         2.145283
 H         0.723573         0.094113         2.861352
