19
Iteration:  1228
 O         0.527957        -0.227119         0.180190
 C        -0.263055         0.588855         0.994576
 C        -1.449597        -0.076418         1.464573
 C        -1.800196         1.452168         1.936273
 C        -3.067069         2.082436         1.342698
 O        -2.451220         1.819969         0.054634
 C        -1.104305         1.828445         0.596220
 C        -0.842533         1.738513         3.076642
 C         0.391025         1.072845         2.318207
 H         1.467601         0.137510         0.061953
 H        -2.209623        -0.242196         0.682262
 H        -1.463588        -0.928881         2.209472
 H        -4.004466         1.661637         1.537786
 H        -3.006983         3.161795         1.290983
 H        -0.638999         2.870950         0.439641
 H        -0.802882         2.861009         3.373765
 H        -1.093740         1.243540         4.036394
 H         1.173729         1.782146         1.982679
 H         0.806022         0.104788         2.791933
