19
Iteration:   509charge 0 multiplicity 1
 O         0.483586        -0.289704         0.111062
 C        -0.165235         0.575408         0.968258
 C        -1.470983        -0.065622         1.432786
 C        -1.822961         1.354151         1.947591
 C        -3.081952         2.123262         1.302581
 O        -2.441514         1.853690         0.025815
 C        -1.067471         1.907015         0.643979
 C        -0.908557         1.659488         3.167018
 C         0.425632         1.144423         2.368115
 H         1.382043        -0.057371        -0.165211
 H        -2.230072        -0.422146         0.695053
 H        -1.506460        -0.887545         2.117134
 H        -4.117883         1.737946         1.487337
 H        -3.021502         3.156688         1.561219
 H        -0.570492         2.977573         0.426604
 H        -0.724120         2.751273         3.161341
 H        -1.085705         1.198840         4.185969
 H         1.168778         2.064359         2.301807
 H         0.956015         0.456407         2.985182
