19
Iteration:  2487
 O         0.686854        -0.107126         0.152873
 C        -0.302207         0.501895         1.022858
 C        -1.657800        -0.080490         1.555065
 C        -1.828471         1.447328         1.986204
 C        -3.082047         2.104336         1.320048
 O        -2.376602         2.014944        -0.022707
 C        -1.067100         1.820137         0.629794
 C        -0.772966         1.626999         3.084118
 C         0.384628         0.983054         2.305032
 H         0.199340        -0.645894        -0.463568
 H        -2.257709        -0.242385         0.671181
 H        -1.702722        -0.827138         2.309853
 H        -4.046744         1.441535         1.206573
 H        -3.391739         3.132796         1.592420
 H        -0.476247         2.656578         0.573384
 H        -0.695377         2.711294         3.220479
 H        -0.957964         1.025810         3.947030
 H         1.178530         1.656833         1.986941
 H         0.937861         0.122488         2.951293
