19
Iteration:  3212
 O         0.600595        -0.309702         0.139485
 C        -0.194725         0.479806         1.030895
 C        -1.508036        -0.133640         1.494501
 C        -1.842433         1.354502         1.997648
 C        -3.156185         2.096325         1.300024
 O        -2.392718         2.111740         0.001502
 C        -1.094067         1.883690         0.711519
 C        -0.853342         1.717647         3.019335
 C         0.379824         1.055733         2.331068
 H         0.553529        -0.104095        -0.860081
 H        -2.054818        -0.529628         0.633441
 H        -1.463379        -0.951673         2.230464
 H        -4.082860         1.697353         1.394196
 H        -3.168358         3.175568         1.588283
 H        -0.331659         2.719472         0.620000
 H        -0.688074         2.880093         3.094094
 H        -1.017910         1.363693         4.107235
 H         1.204064         1.762158         2.295733
 H         0.782529         0.092666         2.936472
