19
Iteration:  3649charge 0 multiplicity 1
 O         0.573058        -0.227984         0.066973
 C        -0.217284         0.485387         0.981193
 C        -1.623660        -0.052455         1.428233
 C        -1.794574         1.468931         1.869164
 C        -3.028826         2.183579         1.389540
 O        -2.368330         2.007920         0.057677
 C        -0.997032         1.858398         0.650905
 C        -0.935041         1.613325         3.090254
 C         0.299383         0.925149         2.401146
 H         1.435100         0.130822         0.277588
 H        -2.251637        -0.488675         0.604362
 H        -1.554187        -0.798470         2.271608
 H        -4.114461         1.675535         1.325279
 H        -3.122621         3.164312         1.816544
 H        -0.377654         2.703804         0.420426
 H        -0.558372         2.658408         3.285583
 H        -1.113672         1.137085         4.058058
 H         1.047177         1.747158         2.107702
 H         0.727866         0.189827         3.020415
