19
Iteration:  1735
 O         0.673612        -0.157938         0.174723
 C        -0.314879         0.608531         0.955270
 C        -1.594548        -0.013524         1.550956
 C        -1.774989         1.530437         1.981444
 C        -3.087510         1.977642         1.278827
 O        -2.450250         1.879031        -0.060437
 C        -1.116645         1.880059         0.656703
 C        -0.740861         1.735346         3.107836
 C         0.379630         0.913096         2.400118
 H         0.208173        -0.342362        -0.648787
 H        -2.305874        -0.246035         0.725960
 H        -1.458740        -0.858746         2.301239
 H        -4.015339         1.403453         1.253035
 H        -3.117390         3.067703         1.563437
 H        -0.678452         2.811060         0.423741
 H        -0.524120         2.815928         3.101441
 H        -0.848819         1.371345         4.090913
 H         1.328177         1.313999         2.102797
 H         0.671309        -0.061245         2.999803
