19
Iteration:  4693charge 0 multiplicity 1
 O         0.574190        -0.045891         0.134131
 C        -0.342406         0.564481         1.023181
 C        -1.729303        -0.021028         1.463234
 C        -1.836519         1.461496         2.011698
 C        -2.936375         2.204751         1.215083
 O        -2.225077         1.989692        -0.069198
 C        -0.992247         1.859202         0.702307
 C        -0.853846         1.499151         3.198263
 C         0.300527         0.776672         2.400011
 H         0.344137         0.112550        -0.768706
 H        -2.497943        -0.219434         0.652039
 H        -1.667673        -0.924665         2.188406
 H        -3.907453         1.737270         1.204298
 H        -3.086632         3.298080         1.310892
 H        -0.195840         2.722940         0.605376
 H        -0.669734         2.552229         3.532335
 H        -1.226104         0.800997         3.950639
 H         1.253975         1.337850         2.285164
 H         0.588764        -0.259604         2.751988
