19
Iteration:  3484charge 0 multiplicity 1
 O         0.563807        -0.365107         0.176944
 C        -0.241977         0.602471         0.914556
 C        -1.577774        -0.024554         1.485575
 C        -1.833916         1.405762         1.878043
 C        -3.055368         2.150325         1.312321
 O        -2.352778         2.016049         0.029755
 C        -1.064071         1.922056         0.674844
 C        -0.890476         1.522150         3.159601
 C         0.400293         1.078143         2.368231
 H         1.030685        -0.083416        -0.678632
 H        -2.266987        -0.406211         0.707716
 H        -1.438953        -0.833972         2.274841
 H        -4.040872         1.596931         1.287054
 H        -3.178532         3.152224         1.439416
 H        -0.695714         2.918074         0.626376
 H        -0.770406         2.523501         3.534460
 H        -1.110513         0.902709         4.048968
 H         1.049769         2.105411         2.210185
 H         1.036950         0.218259         2.640498
