19
Iteration:  4311charge 0 multiplicity 1
 O         0.564304        -0.126313         0.061719
 C        -0.281108         0.596818         0.962596
 C        -1.723969         0.052510         1.469535
 C        -1.844885         1.460080         1.951631
 C        -2.976752         2.210677         1.255597
 O        -2.230943         1.977908         0.016348
 C        -0.996705         1.947404         0.665056
 C        -0.908361         1.433560         3.158862
 C         0.305141         0.782799         2.414062
 H         1.159231        -0.651329         0.577453
 H        -2.403277        -0.307337         0.693337
 H        -1.557533        -0.724226         2.211386
 H        -3.931451         1.706644         1.293931
 H        -2.997741         3.317009         1.446348
 H        -0.395898         2.998437         0.486511
 H        -0.666823         2.497567         3.334847
 H        -1.289416         0.937023         4.055448
 H         1.186967         1.370758         2.259988
 H         0.516032        -0.180503         2.770495
