19
Iteration:  1675
 O         0.499142        -0.224482         0.149100
 C        -0.276688         0.581637         1.011841
 C        -1.525251        -0.121110         1.559487
 C        -1.802227         1.446521         1.952623
 C        -3.037793         2.168117         1.247629
 O        -2.333619         1.855902        -0.061322
 C        -1.093015         1.824535         0.689493
 C        -0.813312         1.631362         3.140748
 C         0.413447         1.129686         2.314371
 H         0.113420        -0.216922        -0.690082
 H        -2.127896        -0.590161         0.760851
 H        -1.347701        -0.855724         2.330267
 H        -4.131224         1.646200         1.333203
 H        -3.187153         3.166084         1.576393
 H        -0.455125         2.783957         0.855524
 H        -1.006152         2.692013         3.382993
 H        -1.124582         1.177510         4.160072
 H         1.024851         2.093031         1.913615
 H         1.048696         0.455011         2.889815
