19
Iteration:  1497
 O         0.658205        -0.129740         0.157565
 C        -0.260987         0.480978         0.999873
 C        -1.557320        -0.142183         1.479451
 C        -1.806231         1.431101         1.918563
 C        -2.998932         2.117939         1.345496
 O        -2.495027         1.962472        -0.003582
 C        -1.075213         1.819181         0.695848
 C        -0.830330         1.827811         3.001039
 C         0.325863         0.953558         2.409526
 H         0.419939        -0.858223        -0.407473
 H        -1.990240        -0.581084         0.625468
 H        -1.340574        -0.837691         2.273856
 H        -4.091939         1.738865         1.524917
 H        -3.043185         3.166855         1.565278
 H        -0.379338         2.702534         0.652417
 H        -0.679361         2.896880         2.970851
 H        -1.242991         1.390641         3.924112
 H         1.329733         1.579023         2.248326
 H         0.676277         0.011606         2.875171
