19
Iteration:  2777
 O         0.599264        -0.216334         0.171275
 C        -0.199482         0.533370         1.030080
 C        -1.613115        -0.074321         1.521759
 C        -1.805703         1.458364         1.918883
 C        -3.039026         2.281309         1.293468
 O        -2.400618         1.848110         0.011203
 C        -1.100277         1.892013         0.652914
 C        -0.917192         1.492753         3.165598
 C         0.446142         1.064819         2.286364
 H         0.610204        -0.014250        -0.734090
 H        -2.115261        -0.435136         0.555058
 H        -1.706879        -0.889482         2.309518
 H        -4.072944         1.947840         1.238521
 H        -3.112946         3.312605         1.492660
 H        -0.650395         2.788767         0.525040
 H        -0.875599         2.556450         3.429677
 H        -0.978201         0.897902         4.069297
 H         1.126272         1.991218         1.920254
 H         1.174978         0.337694         2.765076
