19
Iteration:  2451
 O         0.536542        -0.209961         0.069807
 C        -0.268144         0.576278         0.973654
 C        -1.520870        -0.019597         1.559060
 C        -1.825767         1.443461         2.016227
 C        -3.077562         1.975661         1.259133
 O        -2.308524         1.965402        -0.021421
 C        -1.058171         1.978637         0.676195
 C        -0.748695         1.753861         3.132782
 C         0.282082         0.909912         2.379687
 H         0.028743        -0.250975        -0.704841
 H        -2.245317        -0.341099         0.826983
 H        -1.318860        -0.923760         2.166414
 H        -3.873405         1.076001         1.153329
 H        -3.677114         2.866655         1.387653
 H        -0.553553         2.943853         0.644403
 H        -0.394742         2.783836         3.271729
 H        -0.943192         1.380294         4.156062
 H         1.316028         1.457559         2.281991
 H         0.457101        -0.103131         2.994400
