19
Iteration:  4313
 O         0.564791        -0.135614         0.059518
 C        -0.287843         0.591524         0.959846
 C        -1.698538         0.036848         1.469824
 C        -1.843213         1.465497         1.956968
 C        -2.974392         2.223383         1.246386
 O        -2.233772         1.986288         0.016479
 C        -1.004258         1.947836         0.681291
 C        -0.928385         1.437723         3.151231
 C         0.311067         0.782458         2.417676
 H         1.160344        -0.678422         0.579068
 H        -2.360026        -0.303438         0.703291
 H        -1.532210        -0.728672         2.219527
 H        -4.026708         1.685506         1.302711
 H        -2.997828         3.337852         1.481961
 H        -0.395619         3.001589         0.453623
 H        -0.649908         2.503266         3.372922
 H        -1.308876         0.938095         4.023155
 H         1.200673         1.405030         2.217143
 H         0.554562        -0.199073         2.739122
