19
Iteration:  2950
 O         0.614136        -0.273424         0.112428
 C        -0.289214         0.522102         0.972533
 C        -1.606430        -0.042397         1.453219
 C        -1.804065         1.448419         1.915633
 C        -3.089441         1.992500         1.332748
 O        -2.407756         1.988948         0.017143
 C        -1.020266         1.915748         0.626244
 C        -0.824520         1.711212         3.147762
 C         0.403093         1.027753         2.437134
 H         0.272373        -0.023185        -0.755778
 H        -2.227287        -0.298561         0.581119
 H        -1.542698        -0.807409         2.190624
 H        -4.114927         1.421811         1.458487
 H        -3.073038         3.056649         1.763665
 H        -0.267069         2.801424         0.303898
 H        -0.636691         2.806413         3.258815
 H        -1.002320         1.364409         4.169113
 H         1.243044         1.656653         2.363444
 H         0.651204         0.055556         2.884301
