19
Iteration:  1853charge 0 multiplicity 1
 O         0.585181        -0.108824         0.108208
 C        -0.257460         0.559506         1.017345
 C        -1.603588        -0.032750         1.533708
 C        -1.778280         1.480191         1.877262
 C        -3.057549         1.951867         1.317519
 O        -2.382587         1.890880         0.011317
 C        -1.039287         1.847893         0.690903
 C        -0.812469         1.777925         3.066199
 C         0.332262         0.949321         2.413030
 H         0.178991         0.030399        -0.760766
 H        -2.379080        -0.345553         0.796950
 H        -1.367141        -0.792495         2.321448
 H        -3.929105         1.162733         1.448966
 H        -3.275523         2.994575         1.512514
 H        -0.486818         2.758441         0.313470
 H        -0.392830         2.790579         3.116458
 H        -1.078211         1.414399         4.068890
 H         1.321805         1.380201         2.299797
 H         0.598133         0.077535         2.893680
