19
Iteration:  1463
 O         0.688449        -0.114743         0.164428
 C        -0.359440         0.504611         0.980777
 C        -1.682075        -0.025016         1.619367
 C        -1.873658         1.441386         1.932112
 C        -2.995755         2.071056         1.241171
 O        -2.371725         1.902096        -0.053251
 C        -1.072298         1.847521         0.733752
 C        -0.793072         1.645341         3.101134
 C         0.407363         1.049692         2.271097
 H         0.254900        -0.659254        -0.463903
 H        -2.369052        -0.406999         0.854296
 H        -1.633598        -0.757519         2.432867
 H        -3.991145         1.501790         1.366371
 H        -3.104909         3.105743         1.541383
 H        -0.521174         2.835994         0.645633
 H        -0.522061         2.635756         3.509672
 H        -1.088916         1.125653         4.036407
 H         1.165718         1.833081         1.940028
 H         1.006796         0.164887         2.716753
