19
Iteration:  1778
 O         0.699764        -0.149998         0.194057
 C        -0.275293         0.439483         0.955966
 C        -1.612318        -0.076231         1.535173
 C        -1.814347         1.372267         1.997483
 C        -3.024194         2.104621         1.324882
 O        -2.447999         1.956936        -0.053652
 C        -1.091134         1.809573         0.579670
 C        -0.808746         1.700655         3.150577
 C         0.340789         1.100514         2.298120
 H         0.322028        -0.495769        -0.669596
 H        -2.382664        -0.270978         0.739821
 H        -1.558973        -0.822811         2.409738
 H        -4.041017         1.642783         1.489290
 H        -3.028488         3.157742         1.633854
 H        -0.516634         2.719976         0.614692
 H        -0.714293         2.765238         3.371801
 H        -1.081483         1.103418         3.965630
 H         1.098860         1.903944         2.100650
 H         1.133072         0.362187         2.907016
