19
Iteration:  4900
 O         0.588298        -0.275676         0.175102
 C        -0.223769         0.514563         0.971804
 C        -1.625322        -0.003540         1.442956
 C        -1.885008         1.472563         1.983639
 C        -3.078336         2.240637         1.181270
 O        -2.276512         2.092702        -0.049449
 C        -1.053492         1.870530         0.792061
 C        -0.807179         1.504403         3.190985
 C         0.356741         0.887831         2.378937
 H         0.324183        -0.036139        -0.765907
 H        -2.221529         0.015299         0.534438
 H        -1.718476        -0.941014         1.985983
 H        -3.962406         1.672380         1.332820
 H        -3.222148         3.263376         1.474218
 H        -0.465784         2.729020         0.704854
 H        -0.842499         2.611148         3.369715
 H        -1.172924         0.781667         3.940001
 H         1.243502         1.461192         2.190982
 H         0.686599        -0.081578         2.840954
