19
Iteration:   769
 O         0.553456        -0.158000         0.064517
 C        -0.301896         0.486882         1.034621
 C        -1.547367        -0.099430         1.536264
 C        -1.754468         1.406864         1.965180
 C        -3.014753         2.009683         1.372914
 O        -2.436754         2.005946        -0.009625
 C        -1.056652         1.758873         0.569813
 C        -0.902511         1.790156         3.100456
 C         0.363039         1.096965         2.339199
 H         1.298442        -0.667357         0.478057
 H        -2.174854        -0.458055         0.773699
 H        -1.508899        -0.899429         2.285987
 H        -3.958995         1.420885         1.304895
 H        -3.167051         3.076182         1.622493
 H        -0.375991         2.720795         0.576025
 H        -0.681780         2.871030         3.134056
 H        -0.997333         1.381753         4.076454
 H         1.080750         1.690246         1.846368
 H         1.018321         0.289321         2.909738
