19
Iteration:   460
 O         0.639512        -0.074335         0.089047
 C        -0.354744         0.532907         1.027070
 C        -1.620239        -0.015368         1.641100
 C        -1.883623         1.429966         1.983170
 C        -3.077798         2.054942         1.190269
 O        -2.452889         1.963250        -0.044924
 C        -1.085437         1.776889         0.647748
 C        -0.692395         1.647518         3.101308
 C         0.400137         0.975537         2.279212
 H         1.486046        -0.120491         0.620253
 H        -2.218065        -0.567558         0.954127
 H        -1.563874        -0.697535         2.539496
 H        -4.015106         1.474714         1.250215
 H        -3.319038         3.079240         1.618298
 H        -0.493531         2.596654         0.510250
 H        -0.471814         2.692428         3.371556
 H        -0.979321         1.052073         3.963134
 H         1.166769         1.714368         2.070113
 H         1.016223         0.118427         2.860033
