19
Iteration:  3616
 O         0.528037        -0.137026         0.114320
 C        -0.314354         0.544401         0.978341
 C        -1.622001        -0.109711         1.523972
 C        -1.901703         1.362506         2.001207
 C        -3.037579         2.171280         1.222708
 O        -2.282401         2.063388        -0.028284
 C        -1.057105         1.851330         0.723352
 C        -0.827643         1.505863         3.189276
 C         0.378556         1.011185         2.238045
 H         1.129861        -0.736959         0.662033
 H        -2.236102        -0.430913         0.628322
 H        -1.567445        -0.861340         2.361811
 H        -4.131397         1.855355         0.873180
 H        -2.982235         3.196156         1.552595
 H        -0.547341         2.747206         0.703389
 H        -0.470476         2.534353         3.419799
 H        -0.842149         0.913000         4.111757
 H         1.038231         1.933574         1.917142
 H         1.087670         0.378410         2.778445
