19
Iteration:   760charge 0 multiplicity 1
 O         0.597780        -0.116666         0.110159
 C        -0.316903         0.527706         1.041250
 C        -1.605406        -0.144047         1.615652
 C        -1.817003         1.395945         1.944437
 C        -3.042600         2.048422         1.299149
 O        -2.415342         1.982515        -0.033564
 C        -1.115124         1.800120         0.627165
 C        -0.754393         1.709490         3.095734
 C         0.361774         1.034181         2.280913
 H         1.418090        -0.436465         0.577795
 H        -2.283937        -0.361555         0.839397
 H        -1.571859        -0.738313         2.480122
 H        -4.020844         1.494863         1.214981
 H        -3.192744         3.139441         1.584601
 H        -0.583232         2.730977         0.270588
 H        -0.517356         2.818453         3.145592
 H        -0.956492         1.260924         4.078154
 H         1.074739         1.837212         1.939385
 H         1.017071         0.327209         2.701231
