19
Iteration:  2010charge 0 multiplicity 1
 O         0.614383        -0.059486         0.092270
 C        -0.218260         0.556130         0.994713
 C        -1.602221        -0.085160         1.558741
 C        -1.819014         1.411156         1.981167
 C        -2.955705         2.144754         1.337088
 O        -2.432743         1.805213         0.006091
 C        -1.077775         1.787853         0.665650
 C        -0.865607         1.702145         2.997332
 C         0.387765         0.989098         2.416357
 H         0.153219        -0.008506        -0.712010
 H        -2.329805        -0.430271         0.796257
 H        -1.498209        -0.800841         2.459550
 H        -4.143713         1.913251         1.368605
 H        -3.001558         3.281125         1.271767
 H        -0.528841         2.765794         0.560677
 H        -0.750770         2.793277         3.032466
 H        -1.064742         1.205498         3.940843
 H         1.210629         1.600979         2.246384
 H         0.695487         0.060558         2.964791
