19
Iteration:  2960
 O         0.577632        -0.240829         0.060955
 C        -0.189247         0.505413         0.992534
 C        -1.551624        -0.045839         1.488304
 C        -1.836541         1.471781         2.022463
 C        -3.037701         2.048274         1.300883
 O        -2.387604         1.987966         0.010817
 C        -1.047937         1.866051         0.646414
 C        -0.869687         1.784739         3.189759
 C         0.386969         0.968578         2.353753
 H         0.136002        -0.300212        -0.761988
 H        -2.239386        -0.249463         0.658040
 H        -1.604314        -0.901215         2.087998
 H        -3.858605         1.228452         1.200685
 H        -3.622991         3.002695         1.561506
 H        -0.440902         2.812484         0.214215
 H        -0.657588         2.876808         3.389397
 H        -1.166282         1.205242         4.113971
 H         1.248969         1.546503         2.432937
 H         0.753492         0.028729         2.941488
