19
Iteration:  3853
 O         0.473197        -0.031385         0.066457
 C        -0.337506         0.492909         1.005645
 C        -1.748244        -0.053228         1.504847
 C        -1.836583         1.459827         1.969407
 C        -3.000805         2.097903         1.169366
 O        -2.176873         2.018242        -0.029007
 C        -0.907917         1.854855         0.765908
 C        -0.865301         1.523194         3.151407
 C         0.368715         0.948704         2.417942
 H         0.141983        -0.860419        -0.254325
 H        -2.328864        -0.488415         0.704927
 H        -1.522485        -0.717741         2.322269
 H        -3.893095         1.582213         1.152008
 H        -3.199658         3.185883         1.392320
 H        -0.370860         2.872945         0.725259
 H        -0.620622         2.502553         3.565320
 H        -1.295238         0.856108         3.932741
 H         1.089743         1.741632         2.188615
 H         1.027426         0.045036         2.768168
