19
Iteration:  1618
 O         0.690008        -0.091301         0.242650
 C        -0.307982         0.560751         0.990381
 C        -1.596828        -0.100818         1.565331
 C        -1.839757         1.515256         1.980113
 C        -3.075292         2.089961         1.271224
 O        -2.453513         1.917106         0.007487
 C        -1.080426         1.811751         0.615486
 C        -0.711696         1.755160         3.031564
 C         0.350556         0.872871         2.294143
 H         0.315241        -0.639022        -0.552480
 H        -2.216099        -0.373366         0.721224
 H        -1.490647        -0.826336         2.334582
 H        -4.026194         1.433117         1.368926
 H        -3.224717         3.147474         1.562752
 H        -0.468193         2.781278         0.456733
 H        -0.622889         2.873502         3.029204
 H        -1.045684         1.232358         3.997668
 H         1.358046         1.448542         2.118852
 H         0.610100         0.044625         2.899297
