19
Iteration:  2405
 O         0.638015        -0.051066         0.116376
 C        -0.334455         0.476482         1.004556
 C        -1.700957        -0.105630         1.559460
 C        -1.809427         1.504004         1.989573
 C        -2.986418         2.136942         1.312267
 O        -2.329365         1.877904        -0.041937
 C        -1.053792         1.720014         0.684638
 C        -0.819710         1.574195         3.154132
 C         0.357398         1.110183         2.256484
 H         0.209248        -0.147771        -0.732759
 H        -2.501630        -0.481826         0.846199
 H        -1.681891        -0.799540         2.478074
 H        -4.091067         1.959944         1.377461
 H        -2.804313         3.273115         1.487938
 H        -0.265284         2.456065         0.448958
 H        -0.717485         2.553862         3.678451
 H        -1.045755         0.844128         4.004459
 H         0.923512         2.073404         1.850631
 H         1.042319         0.431872         2.749712
