19
Iteration:  2415charge 0 multiplicity 1
 O         0.555046        -0.058866         0.090792
 C        -0.264427         0.457825         1.069737
 C        -1.669979        -0.097160         1.592191
 C        -1.847327         1.435526         1.954563
 C        -2.997363         2.165375         1.282658
 O        -2.305294         1.866028        -0.009469
 C        -1.014714         1.787462         0.678957
 C        -0.850756         1.592205         3.065506
 C         0.382420         1.062577         2.304173
 H         0.020489         0.032542        -0.659847
 H        -2.412233        -0.360657         0.758073
 H        -1.604005        -0.854567         2.466436
 H        -3.915720         1.601014         1.464555
 H        -2.934944         3.332620         1.499604
 H        -0.575442         2.893051         0.457488
 H        -0.573874         2.630826         3.412205
 H        -1.089650         0.915960         3.971394
 H         1.043493         1.981087         2.033045
 H         1.029009         0.451201         2.835661
