19
Iteration:   447
 O         0.584982        -0.111134         0.043492
 C        -0.254004         0.504489         0.935067
 C        -1.562975        -0.106019         1.602172
 C        -1.822607         1.475521         1.991834
 C        -3.123207         2.024450         1.311947
 O        -2.364634         1.936435        -0.049334
 C        -1.137336         1.843671         0.691144
 C        -0.834972         1.753668         3.104442
 C         0.433034         0.986435         2.326696
 H         1.338472        -0.472297         0.526001
 H        -2.357347        -0.294587         0.870521
 H        -1.423549        -0.879628         2.385217
 H        -4.003229         1.387734         1.281935
 H        -3.305362         3.148143         1.402894
 H        -0.605815         2.772744         0.620063
 H        -0.594542         2.853829         3.258617
 H        -1.012542         1.346312         4.062721
 H         1.347532         1.546153         2.175780
 H         0.545947        -0.007507         2.853566
