19
Iteration:  4875charge 0 multiplicity 1
 O         0.469921        -0.100233         0.067209
 C        -0.284217         0.524488         0.986663
 C        -1.655484        -0.157242         1.601726
 C        -1.877677         1.354767         1.892991
 C        -2.946352         2.108132         1.186669
 O        -2.136465         2.167997        -0.001867
 C        -0.944867         1.910564         0.748185
 C        -0.917198         1.589554         3.122362
 C         0.308166         0.865599         2.398513
 H        -0.170753        -0.589932        -0.484321
 H        -2.307580        -0.539739         0.800895
 H        -1.651989        -0.757200         2.443786
 H        -3.953524         1.640712         1.126507
 H        -3.051586         3.049454         1.627514
 H        -0.313584         2.858171         0.903292
 H        -0.786548         2.687548         3.132879
 H        -1.300927         1.058404         4.083939
 H         1.095429         1.576735         2.183888
 H         0.760678        -0.019770         2.801155
