19
Iteration:  1891charge 0 multiplicity 1
 O         0.693687        -0.044070         0.198906
 C        -0.324880         0.503628         0.961789
 C        -1.633581        -0.133417         1.559838
 C        -1.852085         1.401589         2.030703
 C        -3.059014         2.136042         1.234719
 O        -2.414854         1.886535        -0.012187
 C        -1.096517         1.780997         0.673893
 C        -0.722141         1.691224         3.083790
 C         0.381976         1.048040         2.266881
 H         0.236889        -0.321763        -0.682878
 H        -2.288448        -0.582181         0.796081
 H        -1.591317        -0.759862         2.479457
 H        -4.025006         1.871232         1.445373
 H        -3.019520         3.158469         1.526565
 H        -0.474613         2.632778         0.558011
 H        -0.617400         2.771307         3.284059
 H        -1.097128         1.133377         3.937072
 H         1.101235         1.871233         2.104161
 H         0.826260        -0.001352         2.740401
