19
Iteration:  2380charge 0 multiplicity 1
 O         0.719954        -0.157196         0.226180
 C        -0.245348         0.577588         0.948451
 C        -1.639406        -0.062490         1.540515
 C        -1.837126         1.474066         1.987991
 C        -3.047219         2.166895         1.295845
 O        -2.459912         1.911318         0.000659
 C        -1.105425         1.844597         0.608106
 C        -0.806242         1.525324         3.081716
 C         0.391695         1.015276         2.253927
 H         0.247828        -0.592830        -0.449195
 H        -2.483984        -0.435053         0.910443
 H        -1.493524        -0.803429         2.367681
 H        -4.085592         1.885408         1.476279
 H        -2.931148         3.301594         1.557196
 H        -0.462769         2.858293         0.522320
 H        -0.594496         2.554296         3.471181
 H        -0.993006         0.931235         4.024294
 H         1.036644         1.883603         2.099811
 H         0.904694         0.244079         2.704218
