19
Iteration:  1303
 O         0.518185        -0.144214         0.059360
 C        -0.247707         0.558627         1.012855
 C        -1.587596        -0.059880         1.647312
 C        -1.855895         1.453906         2.003927
 C        -3.079367         1.995528         1.233714
 O        -2.298441         1.834974        -0.014160
 C        -1.060358         1.851854         0.734151
 C        -0.854958         1.706542         3.101844
 C         0.442191         1.090329         2.286274
 H        -0.057818        -0.540614        -0.584615
 H        -2.271392        -0.476950         0.926680
 H        -1.413745        -0.830903         2.416533
 H        -4.017017         1.551509         0.884104
 H        -3.203245         3.113816         1.454413
 H        -0.476680         2.765745         0.550021
 H        -0.558033         2.752480         3.360869
 H        -1.060085         1.258851         4.108900
 H         1.084102         2.064125         2.080693
 H         1.217432         0.511785         2.752996
