19
Iteration:  4144
 O         0.557745        -0.106963         0.063286
 C        -0.292998         0.406771         1.011225
 C        -1.731779        -0.092060         1.423072
 C        -1.906028         1.339694         1.955031
 C        -2.963733         2.185906         1.244258
 O        -2.185413         2.108774        -0.010111
 C        -0.978042         1.787215         0.779429
 C        -0.870015         1.645034         3.066844
 C         0.312942         0.862796         2.477721
 H         0.751845         0.598052        -0.531441
 H        -2.489830        -0.265638         0.675419
 H        -1.778952        -0.947949         2.127741
 H        -4.005118         1.651141         1.225390
 H        -2.998291         3.339077         1.634018
 H        -0.300521         2.762992         0.743013
 H        -0.641904         2.682348         3.140200
 H        -1.190269         1.324249         4.078698
 H         1.065048         1.534866         2.358003
 H         0.625375         0.053150         3.117672
