19
Iteration:  2695charge 0 multiplicity 1
 O         0.561734        -0.134913         0.159295
 C        -0.324898         0.556387         0.955967
 C        -1.587377        -0.126507         1.463648
 C        -1.835377         1.405580         1.981346
 C        -3.035888         2.005258         1.298722
 O        -2.323130         2.017063        -0.000906
 C        -1.007668         1.860970         0.649668
 C        -0.833260         1.779279         3.147510
 C         0.342301         0.964057         2.369137
 H         0.082639        -0.615238        -0.536302
 H        -2.349210        -0.366191         0.742932
 H        -1.338743        -0.867081         2.185662
 H        -4.062613         1.386531         1.407153
 H        -3.012468         3.053001         1.553966
 H        -0.296249         2.763735         0.388706
 H        -0.593543         2.848815         3.212370
 H        -0.946901         1.249422         4.083914
 H         1.216409         1.513881         2.154770
 H         0.703371        -0.025192         2.796758
