19
Iteration:  4866
 O         0.480112        -0.057917         0.001049
 C        -0.364264         0.504874         1.030517
 C        -1.660624        -0.077120         1.618199
 C        -1.801414         1.340806         1.954257
 C        -2.912891         2.083045         1.230932
 O        -2.100358         2.173015        -0.035348
 C        -0.921080         1.820614         0.802381
 C        -0.984669         1.568902         3.050538
 C         0.269636         0.911387         2.342707
 H        -0.045151        -0.775147        -0.423741
 H        -2.432687        -0.371573         0.885607
 H        -1.501198        -0.773826         2.366102
 H        -3.814181         1.478244         1.121185
 H        -3.120275         3.043329         1.654961
 H        -0.227214         2.592696         0.733746
 H        -0.974803         2.669865         3.382273
 H        -1.244396         1.280189         4.131222
 H         1.098601         1.567154         2.310089
 H         0.533291         0.018696         2.938421
