19
Iteration:  4721charge 0 multiplicity 1
 O         0.511333        -0.242653         0.002060
 C        -0.241887         0.498706         1.050520
 C        -1.685877         0.078343         1.441244
 C        -1.805522         1.542998         1.943729
 C        -3.018763         2.077630         1.226886
 O        -2.257358         2.107651        -0.023283
 C        -0.929977         1.902800         0.763117
 C        -0.918833         1.525087         3.140936
 C         0.362483         0.828813         2.526645
 H         0.599370         0.312660        -0.801047
 H        -2.311476        -0.215487         0.659403
 H        -1.746097        -0.638431         2.175981
 H        -3.830230         1.287099         1.161730
 H        -3.435846         3.071479         1.399890
 H        -0.295241         2.672946         0.770429
 H        -0.838612         2.482651         3.595237
 H        -1.374863         0.766979         3.774744
 H         1.239656         1.441820         2.407381
 H         0.630182        -0.079257         2.991321
