19
Iteration:   862
 O         0.591103        -0.199487         0.046898
 C        -0.319409         0.525336         1.023917
 C        -1.499864        -0.120012         1.587036
 C        -1.827591         1.519361         1.967394
 C        -3.025910         2.120792         1.313868
 O        -2.447747         1.780189        -0.002325
 C        -1.101392         1.760454         0.638323
 C        -0.797883         1.757750         3.110193
 C         0.386351         1.110013         2.309222
 H         1.158855         0.463881        -0.355519
 H        -2.225397        -0.367730         0.778515
 H        -1.460832        -1.015404         2.258432
 H        -4.025517         1.669663         1.564775
 H        -3.134523         3.262230         1.451521
 H        -0.659102         2.803528         0.590157
 H        -0.686767         2.832758         3.352987
 H        -1.181567         1.221074         4.068183
 H         1.244300         1.870023         2.203792
 H         0.735575         0.261775         2.883292
