19
Iteration:  3763charge 0 multiplicity 1
 O         0.597225        -0.184564         0.092422
 C        -0.257517         0.503123         0.996908
 C        -1.686651        -0.019105         1.470319
 C        -1.870513         1.484220         1.911958
 C        -3.062229         2.180547         1.253145
 O        -2.313016         1.992048        -0.005753
 C        -1.063953         1.923458         0.703296
 C        -0.806433         1.536745         3.132316
 C         0.367549         0.925646         2.339326
 H         1.115150        -0.805225         0.589080
 H        -2.326633        -0.246438         0.621741
 H        -1.581654        -0.829376         2.135400
 H        -4.023498         1.804407         1.381271
 H        -3.074371         3.247628         1.606557
 H        -0.539361         2.977132         0.728492
 H        -0.567924         2.537708         3.460062
 H        -1.044323         0.904593         4.041972
 H         1.196409         1.624976         2.404800
 H         0.687711        -0.156335         2.858814
