19
Iteration:   217charge 0 multiplicity 1
 O         0.768234        -0.121457         0.148619
 C        -0.291042         0.476510         0.982438
 C        -1.565256        -0.104305         1.581288
 C        -1.827178         1.482620         1.980681
 C        -3.141376         2.054404         1.353992
 O        -2.473282         1.860261        -0.061765
 C        -1.129027         1.798175         0.695781
 C        -0.808845         1.779664         3.098538
 C         0.423836         1.057957         2.269601
 H         0.218828        -0.443650        -0.605041
 H        -2.205087        -0.404734         0.724390
 H        -1.438588        -0.810519         2.362057
 H        -4.052252         1.486395         1.442979
 H        -3.310120         3.129026         1.597328
 H        -0.489513         2.769844         0.566269
 H        -0.635202         2.885470         3.004476
 H        -1.041860         1.394862         4.043019
 H         1.247449         1.767247         1.975981
 H         0.890461         0.251504         2.866201
