19
Iteration:  4297charge 0 multiplicity 1
 O         0.547832        -0.003209         0.078485
 C        -0.327844         0.539147         0.974553
 C        -1.833650         0.038881         1.394396
 C        -1.790156         1.494817         1.983601
 C        -2.962983         2.135629         1.270226
 O        -2.268045         1.952320        -0.066846
 C        -0.911058         1.859214         0.696289
 C        -0.799773         1.538792         3.172711
 C         0.288589         0.768505         2.410747
 H         1.243896        -0.516187         0.572583
 H        -2.564016        -0.028454         0.543224
 H        -2.020671        -0.715404         2.194464
 H        -3.839498         1.669873         1.274220
 H        -3.138575         3.160528         1.483178
 H        -0.351243         2.732483         0.726442
 H        -0.507976         2.501191         3.553485
 H        -1.042051         0.919107         4.094462
 H         1.227227         1.262820         2.587655
 H         0.393776        -0.272597         2.854375
