19
Iteration:   885charge 0 multiplicity 1
 O         0.515039        -0.204868         0.134199
 C        -0.285077         0.627379         1.011712
 C        -1.471386        -0.058843         1.519287
 C        -1.863505         1.345542         1.943926
 C        -3.017407         2.024960         1.359497
 O        -2.498701         1.873399         0.009998
 C        -1.089550         1.827275         0.611668
 C        -0.815969         1.746715         2.998101
 C         0.460165         1.084475         2.334402
 H         1.484614        -0.244001         0.239509
 H        -2.219588        -0.514576         0.881065
 H        -1.359516        -0.772633         2.434351
 H        -4.097230         1.740457         1.432236
 H        -2.931344         3.103366         1.789426
 H        -0.524142         2.792444         0.528583
 H        -0.828269         2.817622         2.819495
 H        -1.157262         1.599478         4.096439
 H         1.314432         1.836804         2.220475
 H         0.872561         0.156616         2.815126
