19
Iteration:  1882charge 0 multiplicity 1
 O         0.734369        -0.054540         0.172115
 C        -0.282286         0.520108         0.992811
 C        -1.661512        -0.073274         1.611522
 C        -1.867899         1.375798         1.977093
 C        -3.112543         2.109382         1.232339
 O        -2.409103         1.906079        -0.008500
 C        -1.125796         1.786178         0.693578
 C        -0.758112         1.715772         3.061323
 C         0.388122         0.978677         2.279757
 H         0.337963        -0.032866        -0.781527
 H        -2.440697        -0.476750         1.030118
 H        -1.405314        -0.844402         2.289117
 H        -4.095017         1.695410         1.337495
 H        -2.968417         3.238329         1.607362
 H        -0.476882         2.614702         0.385665
 H        -0.497802         2.783595         3.250680
 H        -0.830413         1.366397         4.142542
 H         1.372776         1.484732         1.984297
 H         0.673596        -0.015688         2.870654
