19
Iteration:  3579
 O         0.490160        -0.055824        -0.011897
 C        -0.253481         0.514586         1.010720
 C        -1.596077         0.049416         1.515372
 C        -1.822881         1.450134         2.016050
 C        -2.994164         1.994363         1.272125
 O        -2.335253         1.961476        -0.062084
 C        -0.945457         1.895481         0.568543
 C        -0.867857         1.610505         3.220796
 C         0.374127         0.895972         2.452166
 H         0.354795        -1.013760        -0.012421
 H        -2.241706        -0.206701         0.694496
 H        -1.784205        -0.672914         2.321101
 H        -3.994529         1.435971         1.315463
 H        -3.183796         3.098013         1.517985
 H        -0.305583         2.907626         0.520721
 H        -0.690218         2.620271         3.521885
 H        -1.338893         1.096289         4.119887
 H         1.054015         1.649713         2.421788
 H         0.759589         0.066007         2.996159
