19
Iteration:  1710
 O         0.539772        -0.062488         0.072989
 C        -0.302347         0.538305         0.975474
 C        -1.615346        -0.012791         1.681631
 C        -1.808706         1.488472         1.939798
 C        -3.098096         2.027593         1.260925
 O        -2.270706         1.881904        -0.008663
 C        -1.003230         1.763447         0.693043
 C        -0.840809         1.703134         3.082454
 C         0.378579         1.013078         2.341825
 H         0.068114        -0.569679        -0.542222
 H        -2.204185        -0.368734         0.839605
 H        -1.544385        -0.718092         2.562580
 H        -4.020171         1.260911         1.239423
 H        -3.463936         3.003264         1.386868
 H        -0.460000         2.725200         0.549362
 H        -0.650282         2.755273         3.263464
 H        -0.849106         1.103815         3.982063
 H         1.249873         1.637771         1.914974
 H         0.886008         0.199557         2.986251
