19
Iteration:  2361
 O         0.620383        -0.210618         0.229322
 C        -0.252667         0.523488         0.984609
 C        -1.519741        -0.006727         1.449540
 C        -1.816572         1.433210         1.897735
 C        -3.087415         2.103578         1.400707
 O        -2.453712         1.953891        -0.001731
 C        -1.083532         1.910347         0.643421
 C        -0.831101         1.684445         3.020719
 C         0.438401         0.972152         2.335869
 H         0.215211        -0.716091        -0.461899
 H        -2.071413        -0.351738         0.503282
 H        -1.560394        -0.849313         2.230693
 H        -3.909023         1.364890         1.519045
 H        -3.240378         3.166827         1.727406
 H        -0.658886         2.882441         0.607388
 H        -0.770833         2.726501         3.392839
 H        -1.127374         1.187448         4.003119
 H         1.448438         1.609458         2.130204
 H         0.675533         0.034791         2.828950
