19
Iteration:  2264
 O         0.598368        -0.136650         0.112184
 C        -0.268230         0.534226         0.963909
 C        -1.607247         0.026744         1.499072
 C        -1.799092         1.495033         1.935999
 C        -2.986207         2.130803         1.369102
 O        -2.425179         1.758714         0.067799
 C        -0.985053         1.828600         0.634028
 C        -0.882932         1.599396         3.088474
 C         0.389761         1.035942         2.343778
 H         0.156406        -0.243208        -0.717447
 H        -2.208278        -0.329292         0.628025
 H        -1.653592        -0.678016         2.362447
 H        -4.098919         1.781958         1.347786
 H        -3.067744         3.256018         1.350687
 H        -0.554529         2.915399         0.473063
 H        -0.667786         2.649032         3.380861
 H        -0.992622         0.954869         3.966921
 H         0.970437         2.009247         2.204378
 H         0.851660         0.302721         3.027416
