19
Iteration:  2471charge 0 multiplicity 1
 O         0.580487        -0.097837         0.168312
 C        -0.292802         0.505642         0.985954
 C        -1.671213         0.022845         1.506089
 C        -1.819944         1.500310         1.922212
 C        -3.096535         1.871986         1.277121
 O        -2.336409         2.042371         0.011816
 C        -1.010256         1.848369         0.725485
 C        -0.790410         1.728931         3.052731
 C         0.458714         0.894290         2.337501
 H         0.106783        -0.589943        -0.569799
 H        -2.453644        -0.296116         0.784493
 H        -1.665077        -0.700376         2.401559
 H        -3.953840         1.229241         1.409540
 H        -3.557293         2.832694         1.598944
 H        -0.441775         2.849743         0.414450
 H        -0.412425         2.771688         3.178196
 H        -1.118691         1.289175         4.042775
 H         1.438652         1.481981         2.313774
 H         0.661443        -0.050941         2.772826
