19
Iteration:  3148charge 0 multiplicity 1
 O         0.590821        -0.105442         0.063761
 C        -0.269917         0.536720         0.970672
 C        -1.653911        -0.023097         1.576634
 C        -1.860775         1.500664         1.970440
 C        -3.035652         2.144881         1.237342
 O        -2.333774         1.799121        -0.039659
 C        -1.045845         1.891860         0.780828
 C        -0.844125         1.580916         3.105445
 C         0.460727         1.023096         2.349696
 H        -0.012249        -0.718404        -0.444830
 H        -2.453770        -0.128953         0.871018
 H        -1.748309        -0.733784         2.381047
 H        -4.039498         1.744486         1.378459
 H        -3.056741         3.197587         1.317726
 H        -0.652768         2.793692         0.596409
 H        -0.640351         2.614872         3.564096
 H        -1.065873         0.851797         3.897311
 H         1.332588         1.730506         2.276461
 H         1.057605         0.078972         2.793596
