19
Iteration:  3139charge 0 multiplicity 1
 O         0.540737        -0.142966        -0.012695
 C        -0.232193         0.645851         1.044965
 C        -1.611814        -0.039209         1.577946
 C        -1.851622         1.479311         1.976733
 C        -2.958562         2.167628         1.257691
 O        -2.322892         1.779927        -0.051680
 C        -1.073367         1.869795         0.740829
 C        -0.873081         1.558186         3.150092
 C         0.418518         1.047306         2.323806
 H        -0.058491        -0.808027        -0.440129
 H        -2.281588        -0.489267         0.865456
 H        -1.531712        -0.627686         2.502521
 H        -4.072987         1.796671         1.133771
 H        -2.911049         3.230951         1.575722
 H        -0.514850         2.862502         0.737475
 H        -0.818178         2.574887         3.530174
 H        -1.201240         0.959743         3.948901
 H         1.302016         1.746733         2.268582
 H         0.628102         0.204849         2.947983
