19
Iteration:   638
 O         0.582323        -0.166452         0.185448
 C        -0.285637         0.471465         0.960455
 C        -1.627694        -0.005372         1.548409
 C        -1.788795         1.470246         1.949056
 C        -3.076229         2.010506         1.342461
 O        -2.418756         1.966140        -0.023784
 C        -1.067405         1.794949         0.635789
 C        -0.808160         1.643441         3.050160
 C         0.426811         1.057391         2.304903
 H         1.408677         0.293180         0.018551
 H        -2.256014        -0.345891         0.708164
 H        -1.630663        -0.635563         2.437683
 H        -3.950013         1.278637         1.383161
 H        -3.526284         2.997401         1.673233
 H        -0.451300         2.671954         0.422605
 H        -0.688291         2.680447         3.410009
 H        -1.043464         1.064335         3.967439
 H         1.004154         1.957069         1.950545
 H         1.070865         0.317617         2.857459
