19
Iteration:  4850charge 0 multiplicity 1
 O         0.501549        -0.056187        -0.048932
 C        -0.327776         0.425395         0.940876
 C        -1.695711        -0.118067         1.506940
 C        -1.869462         1.459463         1.999116
 C        -3.000088         2.115962         1.174041
 O        -2.112218         2.123309        -0.003848
 C        -0.965018         1.805188         0.739619
 C        -0.886014         1.655702         3.224247
 C         0.308722         0.897808         2.477788
 H         0.331643        -0.956960        -0.296886
 H        -2.410196        -0.410045         0.740598
 H        -1.706375        -0.887845         2.368655
 H        -3.929643         1.500867         1.047999
 H        -3.295227         3.163804         1.512401
 H        -0.205237         2.725928         0.786184
 H        -0.646265         2.659127         3.549029
 H        -1.206648         1.065268         4.106517
 H         1.190646         1.555740         2.205496
 H         0.712726         0.015463         2.978865
