19
Iteration:  1938
 O         0.547097        -0.256714         0.142782
 C        -0.245207         0.557757         0.954750
 C        -1.520066        -0.018062         1.529698
 C        -1.765867         1.464564         1.955151
 C        -3.105160         2.032238         1.228579
 O        -2.394466         1.935070        -0.020484
 C        -1.104990         1.918181         0.632122
 C        -0.835330         1.593684         3.187003
 C         0.445291         1.160782         2.385367
 H        -0.072845        -0.755075        -0.371810
 H        -2.208569        -0.316313         0.769452
 H        -1.298438        -0.830181         2.178714
 H        -3.846281         1.321989         1.363319
 H        -3.544562         2.964326         1.619335
 H        -0.496896         2.841742         0.535188
 H        -0.625854         2.644927         3.461751
 H        -0.955427         0.873750         4.059280
 H         1.128980         2.010969         1.997174
 H         0.889829         0.273158         2.870903
