19
Iteration:  1744
 O         0.646057        -0.159046         0.229843
 C        -0.251926         0.567936         0.945865
 C        -1.545437         0.029879         1.501493
 C        -1.848055         1.406343         1.961489
 C        -3.111480         2.078191         1.334208
 O        -2.449560         1.865244        -0.013450
 C        -1.091082         1.866624         0.607968
 C        -0.726161         1.760525         3.065791
 C         0.371759         0.932783         2.356203
 H         0.431515        -0.314298        -0.685520
 H        -2.245104        -0.291639         0.720855
 H        -1.533057        -0.838856         2.258798
 H        -4.007220         1.372053         1.455384
 H        -3.365029         3.114556         1.381260
 H        -0.649444         2.864608         0.505796
 H        -0.442695         2.787789         3.255326
 H        -0.867177         1.359206         4.055123
 H         1.374971         1.470581         2.341696
 H         0.423573        -0.139899         2.888437
