19
Iteration:   606
 O         0.493296        -0.274328         0.116030
 C        -0.198631         0.633504         0.880399
 C        -1.383397        -0.016453         1.476084
 C        -1.806909         1.419156         1.983419
 C        -2.980184         2.153146         1.350571
 O        -2.469671         1.773937        -0.046405
 C        -1.099629         1.851538         0.715695
 C        -0.895523         1.684819         3.140909
 C         0.327918         1.093773         2.400780
 H         0.941244         0.095070        -0.649270
 H        -1.992552        -0.460720         0.668670
 H        -1.322407        -0.797935         2.209418
 H        -4.022572         1.764728         1.274294
 H        -2.834268         3.252450         1.392871
 H        -0.778835         2.825900         0.663216
 H        -0.814921         2.744558         3.491000
 H        -1.095548         0.997049         3.998698
 H         1.134627         1.927284         2.384673
 H         0.671216         0.203402         2.989901
