19
Iteration:  4259charge 0 multiplicity 1
 O         0.543481        -0.076060        -0.019829
 C        -0.298582         0.516680         0.951567
 C        -1.678054        -0.103705         1.535091
 C        -1.894798         1.329499         1.910611
 C        -2.955072         2.203301         1.229313
 O        -2.196515         2.146362        -0.039153
 C        -0.979070         1.844275         0.831329
 C        -0.901282         1.565215         3.097960
 C         0.296185         0.879010         2.462128
 H         0.760243        -0.935735         0.308250
 H        -2.352160        -0.504859         0.795747
 H        -1.669821        -0.804250         2.374155
 H        -4.114255         1.786855         1.109277
 H        -2.947002         3.229463         1.728343
 H        -0.327000         2.749621         0.816803
 H        -0.704356         2.678366         3.276954
 H        -1.218209         1.131742         4.034365
 H         1.387045         1.331166         2.388274
 H         0.399402        -0.196019         2.796926
