19
Iteration:  4500charge 0 multiplicity 1
 O         0.592010        -0.271147         0.035572
 C        -0.321170         0.491428         0.895993
 C        -1.673342         0.075723         1.434091
 C        -1.791629         1.441950         1.968516
 C        -3.014164         2.080431         1.316395
 O        -2.206369         2.146584         0.039887
 C        -0.940181         1.931284         0.688318
 C        -0.929568         1.533057         3.154384
 C         0.260022         0.907611         2.373714
 H         0.967003        -1.010187         0.575239
 H        -2.435135        -0.050834         0.647968
 H        -1.758696        -0.696421         2.157105
 H        -3.919186         1.410359         1.120245
 H        -3.500448         3.006240         1.713416
 H        -0.409185         2.940360         0.736320
 H        -0.720490         2.489148         3.652492
 H        -1.382014         1.019692         4.001294
 H         1.033453         1.700740         2.296357
 H         0.717037         0.042984         2.818016
