19
Iteration:  3281
 O         0.573925        -0.031460         0.094102
 C        -0.265194         0.608954         0.998909
 C        -1.596252        -0.013727         1.573604
 C        -1.851225         1.494101         1.948866
 C        -3.022625         2.115757         1.229479
 O        -2.420301         1.825883        -0.083459
 C        -1.020639         1.874323         0.660329
 C        -0.775558         1.569480         3.170993
 C         0.401803         0.896393         2.423019
 H        -0.073977        -0.678289        -0.346721
 H        -2.170690        -0.400336         0.725586
 H        -1.599562        -0.783372         2.339354
 H        -4.043550         1.737850         1.360068
 H        -3.032161         3.180283         1.413663
 H        -0.621704         2.809921         0.435050
 H        -0.556039         2.724613         3.356758
 H        -1.025196         1.130812         4.155548
 H         1.365880         1.555572         2.274953
 H         0.691641        -0.137517         2.962173
