19
Iteration:    33
 O         0.550386        -0.198901         0.120835
 C        -0.264107         0.559123         1.026886
 C        -1.490392        -0.093532         1.689160
 C        -1.856163         1.448949         2.012515
 C        -3.127456         1.942497         1.238450
 O        -2.451792         1.863979        -0.102878
 C        -1.160607         1.849094         0.652809
 C        -0.766005         1.693421         3.122710
 C         0.463134         1.190623         2.210903
 H         1.520005         0.061124         0.240013
 H        -2.123766        -0.747026         1.132648
 H        -1.236290        -0.533088         2.634249
 H        -4.040857         1.376642         1.319735
 H        -3.246515         2.996560         1.532131
 H        -0.706715         2.783688         0.615241
 H        -0.696216         2.762335         3.324623
 H        -0.941458         1.143306         3.997836
 H         0.816543         2.105663         1.718517
 H         1.320272         0.708495         2.662189
