19
Iteration:  4665charge 0 multiplicity 1
 O         0.683448        -0.099507         0.074757
 C        -0.263107         0.512818         1.016603
 C        -1.694661        -0.131748         1.422026
 C        -1.898766         1.357863         1.964634
 C        -2.976377         2.337433         1.290400
 O        -2.234250         2.072959         0.005923
 C        -1.019007         1.863417         0.785453
 C        -0.943638         1.531773         3.087500
 C         0.287460         0.799083         2.366834
 H         0.245011        -0.882492        -0.250787
 H        -2.350578        -0.294066         0.580775
 H        -1.614946        -0.880713         2.164586
 H        -4.092020         2.099216         1.204047
 H        -2.867639         3.424673         1.503391
 H        -0.426690         2.721135         0.869654
 H        -0.787251         2.620304         3.257211
 H        -1.202668         1.229260         4.134540
 H         1.038329         1.590586         2.156697
 H         0.810469        -0.057513         2.799560
