19
Iteration:  3377charge 0 multiplicity 1
 O         0.594074        -0.208775         0.082282
 C        -0.277169         0.556169         1.025029
 C        -1.547288        -0.002448         1.433928
 C        -1.835489         1.458815         1.948256
 C        -2.989869         2.116630         1.332667
 O        -2.343628         1.866775        -0.001475
 C        -1.083078         1.852686         0.682845
 C        -0.871011         1.601733         3.199496
 C         0.378883         1.095365         2.346194
 H         0.133403        -0.949739        -0.417398
 H        -2.168454        -0.091541         0.561422
 H        -1.735938        -0.804469         2.131175
 H        -3.961590         1.641619         1.257403
 H        -3.340577         3.272686         1.475671
 H        -0.578657         2.916221         0.563915
 H        -0.653242         2.691866         3.422029
 H        -1.132278         0.941211         4.008322
 H         1.040002         1.865445         2.260407
 H         0.931054         0.228899         2.738068
