19
Iteration:  3896
 O         0.542609        -0.149211         0.114758
 C        -0.293723         0.558666         0.984415
 C        -1.613863        -0.055255         1.383761
 C        -1.813328         1.478547         1.874003
 C        -3.006880         2.216087         1.290650
 O        -2.353411         1.982736        -0.008646
 C        -0.991893         1.920836         0.731480
 C        -0.897291         1.525836         3.111766
 C         0.340220         0.793666         2.417432
 H         1.402243        -0.041965         0.492701
 H        -2.418716        -0.237008         0.693851
 H        -1.565273        -0.715392         2.226033
 H        -3.966122         1.721139         1.255040
 H        -3.012922         3.328585         1.683220
 H        -0.290526         2.933315         0.659601
 H        -0.673921         2.594281         3.217907
 H        -1.229532         1.054867         4.081935
 H         1.241901         1.313839         2.434281
 H         0.635301        -0.159033         2.938984
