19
Iteration:  1440
 O         0.509872        -0.196630         0.152432
 C        -0.286672         0.556690         1.020334
 C        -1.605706         0.007356         1.594520
 C        -1.782826         1.517789         1.935401
 C        -3.077940         2.047949         1.229081
 O        -2.306560         1.863205        -0.002311
 C        -1.044618         1.836107         0.650866
 C        -0.794611         1.581624         3.157366
 C         0.389519         1.124683         2.321089
 H         0.167677         0.108663        -0.749145
 H        -2.147577        -0.378142         0.654563
 H        -1.641811        -0.871615         2.288082
 H        -3.965767         1.313749         1.329931
 H        -3.438174         3.078845         1.158610
 H        -0.335302         2.664461         0.262716
 H        -0.663813         2.576620         3.746531
 H        -1.111854         0.986220         4.048086
 H         1.069408         1.987523         2.149643
 H         1.084978         0.190236         2.723806
