19
Iteration:  1500
 O         0.649834        -0.133413         0.163369
 C        -0.237238         0.483770         0.992926
 C        -1.581940        -0.145262         1.482027
 C        -1.758892         1.441587         1.931307
 C        -2.994376         2.089950         1.357215
 O        -2.501194         1.964062        -0.009388
 C        -1.058904         1.833292         0.685719
 C        -0.840842         1.826000         3.004328
 C         0.318585         0.943673         2.402063
 H         0.386143        -0.816317        -0.443214
 H        -2.026339        -0.541886         0.585559
 H        -1.428479        -0.810724         2.305453
 H        -4.081119         1.625651         1.525933
 H        -2.924406         3.213618         1.501142
 H        -0.493999         2.749502         0.695553
 H        -0.756295         2.851406         2.932847
 H        -1.227450         1.434405         3.923763
 H         1.242720         1.636804         2.262934
 H         0.607976         0.083228         2.894009
