19
Iteration:  2634
 O         0.612424        -0.138736         0.206519
 C        -0.295415         0.582366         0.971120
 C        -1.642121        -0.097631         1.531841
 C        -1.822722         1.485809         1.969357
 C        -2.960471         2.136569         1.302378
 O        -2.330919         1.909502        -0.013525
 C        -1.069328         1.834670         0.645592
 C        -0.832362         1.550396         3.132257
 C         0.317515         1.018373         2.238158
 H         0.123677        -0.349520        -0.578660
 H        -2.371982        -0.496793         0.795878
 H        -1.546900        -0.937687         2.318662
 H        -3.939143         1.931380         1.502478
 H        -2.946562         3.279824         1.448732
 H        -0.648791         2.815864         0.592979
 H        -0.638492         2.558813         3.577730
 H        -1.093065         0.849422         3.983200
 H         0.953028         1.960856         2.047682
 H         1.100840         0.316688         2.649182
