19
Iteration:  3219
 O         0.564510        -0.271969         0.154250
 C        -0.251666         0.511633         1.007219
 C        -1.537870        -0.163197         1.515310
 C        -1.850893         1.365661         1.975822
 C        -3.090006         2.086085         1.308383
 O        -2.381358         2.093047        -0.028711
 C        -1.082727         1.835879         0.684713
 C        -0.810658         1.723934         3.094780
 C         0.411135         1.059002         2.348705
 H         0.444599        -0.149929        -0.840193
 H        -2.052300        -0.315329         0.518321
 H        -1.344736        -1.094074         2.094278
 H        -4.205932         1.646235         1.332944
 H        -3.162266         3.238450         1.492862
 H        -0.422842         2.827477         0.735587
 H        -0.845144         2.751026         3.151254
 H        -1.085547         1.202829         3.997614
 H         1.287824         1.687413         2.199416
 H         0.841275         0.427117         3.007879
