19
Iteration:   567
 O         0.591399        -0.082545         0.044352
 C        -0.294836         0.448570         1.016434
 C        -1.703549        -0.058864         1.628337
 C        -1.831613         1.500628         2.028464
 C        -3.078360         1.944230         1.206953
 O        -2.282881         1.943012        -0.032115
 C        -1.092422         1.705002         0.745037
 C        -0.766865         1.743908         3.108669
 C         0.373783         1.049271         2.256947
 H         0.994073         0.663683        -0.447813
 H        -2.591477        -0.311592         1.081405
 H        -1.491706        -0.720408         2.499447
 H        -3.872036         1.241531         1.388100
 H        -3.510617         2.943937         1.392003
 H        -0.374616         2.649888         0.629251
 H        -0.506294         2.775177         3.408004
 H        -0.974500         1.228763         4.020355
 H         1.102381         1.775205         1.908901
 H         0.848662         0.377587         2.942558
