19
Iteration:  4735charge 0 multiplicity 1
 O         0.471818        -0.296761         0.087990
 C        -0.289421         0.564996         0.907669
 C        -1.601206        -0.052145         1.430600
 C        -1.836082         1.424555         1.992625
 C        -3.014163         2.086854         1.199767
 O        -2.161003         2.148752        -0.001150
 C        -0.969539         1.938144         0.744992
 C        -0.937366         1.557910         3.263936
 C         0.304519         0.909304         2.388421
 H         0.730538         0.194713        -0.693397
 H        -2.294798        -0.123560         0.556649
 H        -1.600047        -0.961526         2.059845
 H        -3.956452         1.484390         1.070457
 H        -3.344899         3.141896         1.588466
 H        -0.408852         2.962198         0.673409
 H        -0.678559         2.612696         3.602401
 H        -1.175845         0.927740         4.161726
 H         1.228221         1.443848         2.524485
 H         0.485084        -0.078401         2.842666
