19
Iteration:  3475
 O         0.502481        -0.379454         0.172053
 C        -0.286172         0.625714         0.917048
 C        -1.542627        -0.055164         1.398909
 C        -1.801008         1.447877         1.954499
 C        -3.045292         2.104490         1.275771
 O        -2.362175         1.977774         0.021112
 C        -1.070008         1.923461         0.677190
 C        -0.862576         1.586524         3.203781
 C         0.401346         1.070969         2.358577
 H         1.045870         0.263179        -0.387774
 H        -2.120804        -0.299038         0.488713
 H        -1.443420        -0.882104         2.124201
 H        -3.977026         1.563922         1.179585
 H        -3.164710         3.174055         1.650549
 H        -0.481498         2.960298         0.647437
 H        -0.909349         2.629085         3.621625
 H        -1.072896         0.891426         3.991629
 H         1.253386         1.733920         2.072312
 H         0.929828         0.327822         3.005568
