19
Iteration:   307
 O         0.528227        -0.142701         0.135694
 C        -0.347247         0.538835         0.968584
 C        -1.490533        -0.135035         1.639800
 C        -1.816719         1.447160         1.959240
 C        -3.053831         1.990242         1.274395
 O        -2.412211         1.942258        -0.059064
 C        -1.131248         1.840479         0.696140
 C        -0.787786         1.776459         3.039885
 C         0.391204         1.024215         2.283677
 H         1.442798         0.045463         0.522642
 H        -2.128505        -0.417707         0.805785
 H        -1.100001        -0.816770         2.394987
 H        -3.873548         1.267102         1.184664
 H        -3.346074         3.001285         1.612605
 H        -0.595522         2.882045         0.880997
 H        -0.543473         2.861466         3.207303
 H        -1.095928         1.270713         3.958393
 H         1.205356         1.596450         1.876607
 H         0.835220         0.117806         2.894697
