19
Iteration:    75charge 0 multiplicity 1
 O         0.596615        -0.169233         0.262487
 C        -0.242692         0.616108         0.973350
 C        -1.447840        -0.103530         1.504165
 C        -1.785556         1.407504         1.953490
 C        -3.100842         1.934664         1.378164
 O        -2.513301         1.807732         0.009597
 C        -1.121302         1.852474         0.575531
 C        -0.805167         1.840843         3.032182
 C         0.395892         1.102975         2.321215
 H         0.451052         0.062429        -0.666600
 H        -2.100350        -0.495661         0.777501
 H        -1.108491        -0.817354         2.238876
 H        -3.980114         1.332290         1.492761
 H        -3.222110         3.047904         1.546159
 H        -0.649279         2.803355         0.269870
 H        -0.623028         2.985077         2.909900
 H        -0.991930         1.530999         4.036009
 H         1.336175         1.705243         2.260789
 H         0.674465         0.200066         2.844012
