19
Iteration:  2676charge 0 multiplicity 1
 O         0.693283        -0.219235         0.143449
 C        -0.255286         0.523589         0.994740
 C        -1.676061         0.013331         1.540017
 C        -1.797103         1.464977         1.917377
 C        -3.008786         2.160614         1.338947
 O        -2.380398         1.920138         0.016811
 C        -1.072238         1.850515         0.682254
 C        -0.867749         1.583314         3.073379
 C         0.355871         1.035080         2.302915
 H         0.228037        -0.318184        -0.751495
 H        -2.376819        -0.270671         0.749069
 H        -1.705386        -0.751213         2.377251
 H        -3.910768         1.483016         1.337442
 H        -3.314996         3.162994         1.562298
 H        -0.531148         2.748767         0.703994
 H        -0.578278         2.607331         3.360569
 H        -1.295510         0.933335         3.870942
 H         1.143163         1.842145         2.161790
 H         1.032211         0.160022         2.783428
