19
Iteration:   841
 O         0.623095        -0.103418         0.101622
 C        -0.282194         0.504952         0.976282
 C        -1.709466         0.059713         1.678320
 C        -1.829611         1.473317         1.977553
 C        -3.068495         2.030567         1.253991
 O        -2.354765         1.769951         0.004984
 C        -1.044023         1.816954         0.647787
 C        -0.781947         1.679566         3.128270
 C         0.435537         1.033363         2.255646
 H         0.458261         0.237965        -0.793238
 H        -2.425955        -0.505799         1.043284
 H        -1.576824        -0.586434         2.627178
 H        -4.029979         1.458682         1.351822
 H        -3.378934         3.122205         1.321610
 H        -0.678037         2.767681         0.261955
 H        -0.562550         2.705246         3.449158
 H        -0.957116         1.035724         4.080408
 H         1.040903         1.977450         1.966978
 H         1.017577         0.323511         2.884872
