19
Iteration:  1962charge 0 multiplicity 1
 O         0.592386        -0.149621         0.193978
 C        -0.288409         0.564472         0.989305
 C        -1.609358        -0.008474         1.622387
 C        -1.837320         1.458441         1.938156
 C        -3.103489         1.917881         1.251624
 O        -2.334821         1.979276        -0.015126
 C        -1.075492         1.882982         0.712823
 C        -0.821536         1.686390         3.055827
 C         0.442974         1.009342         2.271543
 H         0.122669        -0.461348        -0.653708
 H        -2.160038        -0.405081         0.762457
 H        -1.572221        -0.688944         2.449842
 H        -3.947257         1.170072         1.248793
 H        -3.553666         2.905530         1.690872
 H        -0.390056         2.811242         0.747501
 H        -0.448459         2.703594         3.151196
 H        -0.803917         1.115711         4.007326
 H         1.251427         1.711407         1.883932
 H         0.727903         0.126207         2.666848
