19
Iteration:  4712
 O         0.513304        -0.143585         0.048650
 C        -0.271766         0.433936         1.077429
 C        -1.694279         0.075392         1.468476
 C        -1.791473         1.595659         1.870158
 C        -3.041373         2.092484         1.241204
 O        -2.242761         2.059865        -0.035714
 C        -0.915767         1.893567         0.715755
 C        -0.914422         1.442660         3.134408
 C         0.373961         0.775377         2.515827
 H         0.431064         0.430621        -0.735290
 H        -2.218765        -0.233470         0.582529
 H        -1.871970        -0.520139         2.322363
 H        -3.976682         1.447676         1.180792
 H        -3.407623         3.147608         1.583997
 H        -0.323499         2.892956         0.632139
 H        -0.578974         2.430086         3.446921
 H        -1.438343         0.954361         4.016334
 H         1.130626         1.512291         2.401532
 H         0.827536        -0.042119         2.993510
