19
Iteration:  1641
 O         0.751965        -0.168832         0.228967
 C        -0.323853         0.481967         0.963182
 C        -1.709034        -0.001739         1.568435
 C        -1.749504         1.518161         1.929539
 C        -3.073633         2.074897         1.367168
 O        -2.448332         1.909982        -0.039978
 C        -1.080371         1.811526         0.589830
 C        -0.755105         1.678590         3.117802
 C         0.382437         0.993532         2.293277
 H         0.443559        -0.219707        -0.668558
 H        -2.477338        -0.266454         0.835468
 H        -1.623814        -0.648638         2.402454
 H        -3.930386         1.266167         1.350402
 H        -3.353939         3.100031         1.537173
 H        -0.503483         2.810270         0.419354
 H        -0.731725         2.787267         3.187796
 H        -1.250178         1.151147         4.007552
 H         1.298970         1.735649         2.141048
 H         0.819252         0.130550         2.729595
