19
Iteration:  1617charge 0 multiplicity 1
 O         0.691189        -0.093597         0.236242
 C        -0.312395         0.559385         0.991681
 C        -1.600779        -0.095880         1.565683
 C        -1.836195         1.501214         1.978194
 C        -3.066452         2.087782         1.270586
 O        -2.455765         1.914515         0.007401
 C        -1.076622         1.811274         0.624672
 C        -0.712534         1.756876         3.037814
 C         0.356920         0.886304         2.292567
 H         0.266882        -0.638521        -0.535537
 H        -2.198521        -0.358240         0.714011
 H        -1.464458        -0.823185         2.347563
 H        -4.013474         1.475104         1.315852
 H        -3.255844         3.187914         1.570824
 H        -0.500053         2.789242         0.460397
 H        -0.666009         2.879990         2.990415
 H        -1.056149         1.247362         3.989930
 H         1.336816         1.411548         2.160121
 H         0.597473         0.004462         2.871891
