19
Iteration:  1162charge 0 multiplicity 1
 O         0.480356        -0.138740         0.047911
 C        -0.276331         0.518259         0.993220
 C        -1.567458        -0.018749         1.609455
 C        -1.763978         1.407862         1.959269
 C        -3.065591         1.927656         1.292589
 O        -2.381461         1.892285        -0.011710
 C        -1.069082         1.889806         0.636615
 C        -0.833220         1.740821         3.029405
 C         0.414254         1.106751         2.356725
 H         1.030215        -0.766368         0.484470
 H        -2.240632        -0.511977         0.839853
 H        -1.376667        -0.795672         2.407138
 H        -4.008015         1.392576         1.264163
 H        -3.153490         3.016018         1.596863
 H        -0.545841         2.929516         0.695655
 H        -0.701159         2.864119         3.213792
 H        -0.997173         1.350494         4.051248
 H         1.266142         1.698735         2.215090
 H         0.907916         0.287738         3.026783
