19
Iteration:  3205
 O         0.650183        -0.337416         0.150559
 C        -0.191835         0.479653         0.981611
 C        -1.497409        -0.096067         1.494508
 C        -1.888089         1.376007         1.932932
 C        -3.110798         2.110055         1.319920
 O        -2.393481         2.104446         0.043609
 C        -1.104025         1.880229         0.723856
 C        -0.878989         1.719421         3.005394
 C         0.388652         1.014781         2.345846
 H         0.476078         0.112997        -0.693463
 H        -2.179428        -0.539490         0.784453
 H        -1.544809        -0.709663         2.410705
 H        -4.111339         1.516545         1.240056
 H        -3.252207         3.062902         1.793348
 H        -0.531102         2.761492         0.594603
 H        -0.605881         2.786106         3.013044
 H        -0.959518         1.481453         4.040162
 H         1.190762         1.811711         2.199155
 H         0.636706         0.019589         2.777925
