19
Iteration:  2422
 O         0.516366        -0.093380         0.072098
 C        -0.268676         0.500263         1.061410
 C        -1.622238        -0.059460         1.608051
 C        -1.842111         1.393395         1.945860
 C        -2.968334         2.162422         1.266188
 O        -2.324888         1.860101        -0.001163
 C        -1.037628         1.841247         0.690107
 C        -0.860081         1.611955         3.063607
 C         0.434948         1.034451         2.350694
 H         0.037740         0.017646        -0.768337
 H        -2.189927        -0.370492         0.747797
 H        -1.619807        -0.805685         2.362539
 H        -3.924516         1.647176         1.300817
 H        -3.304691         3.169126         1.438066
 H        -0.506738         2.858278         0.697298
 H        -0.721938         2.681774         3.225345
 H        -1.132481         1.053808         3.943204
 H         1.098208         1.773452         2.061587
 H         1.008186         0.281118         2.940826
