19
Iteration:  2297charge 0 multiplicity 1
 O         0.501434        -0.052171         0.083492
 C        -0.334501         0.526673         0.993795
 C        -1.576819        -0.077390         1.680174
 C        -1.905224         1.423872         2.006000
 C        -3.047522         2.106922         1.220207
 O        -2.306632         1.890159        -0.101415
 C        -1.051523         1.802462         0.672768
 C        -0.772766         1.604254         3.165807
 C         0.431507         1.021917         2.309280
 H         0.091973        -0.120321        -0.844690
 H        -2.239207        -0.606001         0.964397
 H        -1.472363        -0.702792         2.584614
 H        -4.056472         1.549073         1.087663
 H        -2.975157         3.181286         1.449022
 H        -0.413610         2.767154         0.741448
 H        -0.677524         2.676028         3.422731
 H        -0.775809         1.125613         4.161945
 H         1.236797         1.897902         2.142510
 H         1.077613         0.307459         2.909834
