19
Iteration:  3517charge 0 multiplicity 1
 O         0.639613        -0.078556         0.197242
 C        -0.322426         0.443488         1.009159
 C        -1.707461        -0.143273         1.504449
 C        -1.804609         1.401051         1.953860
 C        -3.031520         2.158694         1.254704
 O        -2.334291         2.061902         0.008828
 C        -1.051149         1.779413         0.608604
 C        -0.805796         1.616606         3.138619
 C         0.382448         1.021851         2.341510
 H         0.409170        -0.298219        -0.702429
 H        -2.425558        -0.355495         0.676783
 H        -1.705992        -0.928802         2.321210
 H        -4.012888         1.593888         1.354898
 H        -3.232445         3.146855         1.493248
 H        -0.423865         2.617135         0.642635
 H        -0.659509         2.637620         3.491544
 H        -1.086585         0.925978         3.963014
 H         1.201307         1.869056         2.051973
 H         0.975244         0.119623         2.596685
