19
Iteration:  4211
 O         0.595837        -0.216407         0.096759
 C        -0.277151         0.480818         1.005623
 C        -1.768229         0.076717         1.408452
 C        -1.818195         1.499904         1.995821
 C        -3.016336         2.148614         1.216760
 O        -2.222901         2.098869        -0.016890
 C        -1.004486         1.899507         0.719636
 C        -0.920930         1.411206         3.162582
 C         0.425858         0.969126         2.394330
 H         0.372299        -1.194900         0.049449
 H        -2.432141        -0.045972         0.534441
 H        -1.986255        -0.758871         2.083542
 H        -4.003925         1.515583         1.169283
 H        -3.277695         3.292170         1.452978
 H        -0.401219         2.951962         0.742690
 H        -0.777004         2.211071         3.846383
 H        -1.088554         0.499792         3.775034
 H         1.070487         1.770569         2.223531
 H         0.953822         0.208342         2.915633
