19
Iteration:   560charge 0 multiplicity 1
 O         0.631959        -0.106799         0.030518
 C        -0.367477         0.439211         1.002923
 C        -1.711436        -0.029037         1.628341
 C        -1.828422         1.532028         2.061941
 C        -3.118078         1.910386         1.204869
 O        -2.256311         1.973562        -0.009220
 C        -1.091321         1.741960         0.715701
 C        -0.796161         1.773434         3.118630
 C         0.411404         1.045834         2.296622
 H         1.081211         0.526147        -0.476767
 H        -2.622724        -0.548595         1.183336
 H        -1.356069        -0.816909         2.351937
 H        -3.754143         0.957181         1.329519
 H        -3.511184         2.978457         1.373261
 H        -0.498468         2.585989         0.509312
 H        -0.466405         2.787307         3.275126
 H        -1.032539         1.290567         4.108844
 H         1.029178         1.792261         1.834017
 H         0.971936         0.005388         2.734755
