19
Iteration:    66
 O         0.563017        -0.213415         0.219418
 C        -0.259439         0.609787         0.994967
 C        -1.480779        -0.101815         1.423613
 C        -1.839742         1.434373         1.947061
 C        -3.094771         1.907883         1.439423
 O        -2.446886         1.807695         0.067324
 C        -1.057535         1.770910         0.563090
 C        -0.822610         1.887496         3.015487
 C         0.427872         1.203303         2.313740
 H         0.778656         0.153882        -0.646800
 H        -2.114409        -0.503803         0.650281
 H        -1.240962        -0.796851         2.200795
 H        -4.047893         1.423638         1.455251
 H        -3.373902         2.978008         1.593792
 H        -0.588119         2.603266         0.200329
 H        -1.021280         2.914266         3.380849
 H        -0.924522         1.505345         3.985934
 H         1.371132         1.745778         2.227564
 H         0.659077         0.307039         2.913798
