19
Iteration:   712
 O         0.435368        -0.112405         0.025437
 C        -0.310181         0.586293         0.977480
 C        -1.571461        -0.014346         1.516284
 C        -1.763935         1.492452         1.982813
 C        -2.998484         2.030652         1.311994
 O        -2.421687         1.782424        -0.049620
 C        -1.008409         1.771456         0.593206
 C        -0.837140         1.637315         3.168044
 C         0.402927         1.114014         2.458773
 H         1.337466        -0.219391         0.338768
 H        -2.252022        -0.240272         0.638081
 H        -1.281967        -0.724486         2.337696
 H        -4.000769         1.582059         1.394395
 H        -3.166255         3.127396         1.314635
 H        -0.491715         2.823839         0.393810
 H        -0.589869         2.670756         3.332092
 H        -1.057025         1.177955         4.132742
 H         1.158988         1.847743         2.283038
 H         0.986701         0.204047         3.023527
