19
Iteration:  3787
 O         0.608760        -0.183936         0.190585
 C        -0.339674         0.524830         0.957941
 C        -1.688743         0.012808         1.449814
 C        -1.801658         1.510277         1.923643
 C        -3.025706         2.104495         1.298507
 O        -2.349130         2.078587        -0.003380
 C        -1.006251         1.807357         0.650702
 C        -0.853336         1.592411         3.145003
 C         0.341220         0.833801         2.289954
 H         1.486867         0.248532         0.416687
 H        -2.408820        -0.127917         0.628675
 H        -1.717035        -0.781470         2.183138
 H        -3.881522         1.581967         1.452328
 H        -3.238820         3.142049         1.626178
 H        -0.290274         2.615944         0.532320
 H        -0.640861         2.573138         3.540252
 H        -1.068369         0.898669         3.999545
 H         1.205658         1.537422         2.134766
 H         0.718119        -0.241506         2.811219
