19
Iteration:   367charge 0 multiplicity 1
 O         0.649537        -0.122967         0.238748
 C        -0.342768         0.590966         0.986896
 C        -1.646287        -0.063957         1.607681
 C        -1.840103         1.442184         1.995946
 C        -3.041436         2.062689         1.265758
 O        -2.395283         1.857272        -0.060716
 C        -1.095867         1.824957         0.586271
 C        -0.758174         1.619118         3.157816
 C         0.417993         1.103726         2.253478
 H         0.499106         0.014050        -0.705395
 H        -2.300966        -0.605188         0.874193
 H        -1.553968        -0.814859         2.407117
 H        -4.002788         1.449095         1.285290
 H        -3.254114         3.152953         1.499259
 H        -0.558226         2.791541         0.421031
 H        -0.546281         2.597527         3.591789
 H        -0.944654         0.914274         4.018759
 H         1.129546         1.891649         1.844025
 H         0.978239         0.292822         2.586857
