19
Iteration:  3827charge 0 multiplicity 1
 O         0.497479        -0.230043         0.072898
 C        -0.227386         0.501481         0.999436
 C        -1.580887        -0.052812         1.472459
 C        -1.890953         1.355969         2.014048
 C        -3.001623         2.134073         1.222978
 O        -2.246825         2.095196        -0.079511
 C        -0.987398         1.854703         0.825969
 C        -0.963709         1.631647         3.172480
 C         0.389894         0.943894         2.375645
 H         0.084883        -0.093083        -0.792930
 H        -2.122053        -0.376222         0.572842
 H        -1.412867        -0.870784         2.164627
 H        -4.115363         1.795460         1.061762
 H        -2.927240         3.204510         1.595166
 H        -0.513446         2.944357         0.975203
 H        -0.661317         2.670030         3.313305
 H        -1.371785         1.182638         4.093285
 H         1.239239         1.568550         2.309596
 H         0.771766         0.092454         2.730208
