19
Iteration:  4157charge 0 multiplicity 1
 O         0.659015        -0.164093         0.049118
 C        -0.269812         0.445062         1.047739
 C        -1.715547        -0.086654         1.429615
 C        -1.820722         1.426190         1.934708
 C        -2.933585         2.131486         1.324917
 O        -2.268593         2.116354        -0.068847
 C        -0.983021         1.833620         0.792063
 C        -0.972779         1.662729         3.094688
 C         0.261894         0.814826         2.443363
 H         0.366295         0.275645        -0.821027
 H        -2.251764        -0.236939         0.494348
 H        -1.825676        -0.847684         2.187611
 H        -4.134789         1.927294         1.371545
 H        -2.859508         3.260921         1.629444
 H        -0.416829         2.805528         1.031864
 H        -0.717495         2.683287         3.122214
 H        -1.160130         1.310842         4.114002
 H         1.251306         1.287304         2.324052
 H         0.545526        -0.042526         2.966925
