19
Iteration:  2365charge 0 multiplicity 1
 O         0.645234        -0.200143         0.237462
 C        -0.282623         0.523781         0.984207
 C        -1.530617        -0.007308         1.458181
 C        -1.818691         1.430147         1.869956
 C        -3.089538         2.128135         1.420624
 O        -2.459182         1.941224        -0.012073
 C        -1.087283         1.898366         0.686141
 C        -0.818584         1.657766         3.031116
 C         0.439413         0.997214         2.317246
 H         0.199644        -0.737455        -0.474712
 H        -1.975399        -0.372681         0.579931
 H        -1.528680        -0.690454         2.260655
 H        -3.972652         1.459433         1.425822
 H        -3.129652         3.161358         1.626418
 H        -0.669886         2.896869         0.482068
 H        -0.716863         2.672396         3.399406
 H        -1.159379         1.109589         3.879090
 H         1.311089         1.534237         2.123757
 H         0.755588        -0.033952         2.798029
