19
Iteration:  1823
 O         0.532324        -0.190990         0.095977
 C        -0.257669         0.619798         0.993336
 C        -1.570103        -0.031106         1.569032
 C        -1.851789         1.454647         1.964609
 C        -3.041323         1.996833         1.219490
 O        -2.319692         1.883124        -0.045294
 C        -1.094764         1.887215         0.742018
 C        -0.821407         1.639418         3.178935
 C         0.424265         1.108840         2.332862
 H        -0.092861        -0.687596        -0.438490
 H        -2.309566        -0.298960         0.745109
 H        -1.354083        -0.809362         2.355817
 H        -4.019423         1.473644         1.236481
 H        -3.284733         3.013425         1.373931
 H        -0.609273         2.828686         0.519040
 H        -0.529180         2.671861         3.372008
 H        -1.010744         1.043849         4.047417
 H         1.206545         1.876472         2.135006
 H         0.991548         0.097774         2.753116
