19
Iteration:  1122
 O         0.607248        -0.031322         0.069870
 C        -0.309547         0.577084         0.995263
 C        -1.609436        -0.055315         1.615742
 C        -1.820349         1.463293         1.941582
 C        -3.035774         2.015497         1.253208
 O        -2.407007         1.752917         0.009138
 C        -1.098477         1.849637         0.654289
 C        -0.717106         1.769154         3.078951
 C         0.404436         0.997050         2.378214
 H         0.420594        -0.917999        -0.403785
 H        -2.418754        -0.323917         0.988743
 H        -1.610740        -0.683747         2.538781
 H        -4.074021         1.524911         1.223421
 H        -3.352120         3.022603         1.548531
 H        -0.660801         2.758109         0.387694
 H        -0.545444         2.848464         3.182462
 H        -1.003320         1.395665         4.031270
 H         1.311827         1.683428         2.146675
 H         0.801472         0.140581         2.995462
