19
Iteration:  1041
 O         0.504396        -0.235523         0.132179
 C        -0.279254         0.583354         0.991864
 C        -1.552234        -0.065633         1.578929
 C        -1.812643         1.469806         1.928846
 C        -3.100414         1.933089         1.299276
 O        -2.443024         1.887202         0.047636
 C        -1.091054         1.891682         0.622254
 C        -0.804988         1.737410         3.057605
 C         0.489927         1.162203         2.269240
 H         1.348170        -0.566064         0.551387
 H        -2.203562        -0.493326         0.729092
 H        -1.234739        -0.783752         2.384579
 H        -3.811498         1.139241         1.350328
 H        -3.359510         3.004949         1.511455
 H        -0.571715         2.848663         0.505227
 H        -0.694711         2.825657         3.128233
 H        -0.991714         1.321400         4.053452
 H         1.263826         1.842690         1.980013
 H         0.904332         0.280326         2.861967
