19
Iteration:  2478charge 0 multiplicity 1
 O         0.627269        -0.080789         0.166564
 C        -0.262769         0.475958         1.033501
 C        -1.689332         0.012175         1.545702
 C        -1.852759         1.415638         1.942049
 C        -3.131429         1.995626         1.332056
 O        -2.352758         2.034552        -0.008848
 C        -1.021152         1.837408         0.628326
 C        -0.781971         1.688273         3.050670
 C         0.450495         0.937291         2.304925
 H         0.184053        -0.623373        -0.453308
 H        -2.408322        -0.288295         0.740059
 H        -1.702738        -0.813061         2.260484
 H        -3.922916         1.205367         1.293385
 H        -3.392945         3.075822         1.510555
 H        -0.340792         2.750838         0.543407
 H        -0.482379         2.679892         3.442760
 H        -1.041634         1.271233         4.041253
 H         1.283548         1.551862         2.099214
 H         0.737255        -0.020431         2.865620
