19
Iteration:   594
 O         0.453040        -0.175323         0.125421
 C        -0.215588         0.654428         1.033578
 C        -1.500749        -0.097984         1.520904
 C        -1.865766         1.394729         1.962025
 C        -3.002110         2.097950         1.264090
 O        -2.381525         1.807759        -0.027558
 C        -1.112056         1.851182         0.652479
 C        -0.883911         1.644636         3.094275
 C         0.462214         1.064859         2.371867
 H         0.789470         0.355357        -0.597664
 H        -2.228673        -0.523327         0.786129
 H        -1.132603        -0.715688         2.330796
 H        -4.084127         1.872608         1.516350
 H        -2.935275         3.209459         1.484615
 H        -0.654766         2.794610         0.522578
 H        -0.728917         2.724407         3.228064
 H        -1.202781         1.235826         4.090354
 H         1.295747         1.821493         2.292569
 H         0.980231         0.167250         2.901042
