19
Iteration:  1776charge 0 multiplicity 1
 O         0.698555        -0.154417         0.198035
 C        -0.276753         0.432840         0.956930
 C        -1.603105        -0.070606         1.528504
 C        -1.823946         1.360021         1.969762
 C        -3.013537         2.112953         1.338450
 O        -2.454340         1.948304        -0.043608
 C        -1.089390         1.827463         0.585697
 C        -0.812685         1.723148         3.138858
 C         0.349170         1.076643         2.315257
 H         0.400911        -0.489357        -0.727131
 H        -2.343630        -0.264248         0.749637
 H        -1.562264        -0.838559         2.362942
 H        -4.059920         1.659040         1.549098
 H        -3.110027         3.108234         1.579251
 H        -0.518903         2.796167         0.588304
 H        -0.668005         2.771472         3.395222
 H        -1.073341         1.112700         3.999073
 H         1.070253         1.903040         2.042144
 H         1.036455         0.376433         2.902055
