19
Iteration:  2850
 O         0.582772        -0.183461         0.010270
 C        -0.242373         0.555017         1.011159
 C        -1.569312        -0.052039         1.521527
 C        -1.828770         1.495203         2.060039
 C        -3.075779         1.976375         1.211840
 O        -2.332289         1.962707        -0.078015
 C        -1.111318         1.966040         0.730344
 C        -0.794807         1.714787         3.217893
 C         0.434534         0.915860         2.357732
 H        -0.004168        -0.908225        -0.408588
 H        -2.294242        -0.166118         0.756427
 H        -1.659937        -0.754573         2.323531
 H        -4.034344         1.227343         1.298940
 H        -3.369662         3.133950         1.267063
 H        -0.463731         3.002005         0.915136
 H        -0.684713         2.808044         3.238630
 H        -1.280268         1.384468         4.162509
 H         1.268095         1.472298         2.297515
 H         0.612894        -0.128122         2.814368
