19
Iteration:  2304
 O         0.515786        -0.055120         0.082650
 C        -0.327296         0.532187         1.035271
 C        -1.594933        -0.082264         1.712437
 C        -1.893960         1.399647         1.990299
 C        -3.042884         2.044999         1.158391
 O        -2.286907         1.946090        -0.062241
 C        -1.075198         1.839191         0.712849
 C        -0.733179         1.631835         3.095607
 C         0.411860         1.014806         2.326291
 H         0.075453        -0.194403        -0.817652
 H        -2.209162        -0.622283         0.940648
 H        -1.494550        -0.657847         2.682790
 H        -3.989938         1.590154         1.231334
 H        -3.208558         3.027490         1.630594
 H        -0.438840         2.659606         0.654975
 H        -0.559010         2.707452         3.229024
 H        -1.061908         1.088640         4.019571
 H         1.174918         1.790706         1.953403
 H         0.951914         0.182204         2.687536
