19
Iteration:     8charge 0 multiplicity 1
 O         0.530560        -0.062195         0.081954
 C        -0.294519         0.586461         0.999332
 C        -1.476248        -0.079442         1.689247
 C        -1.794786         1.481921         2.028096
 C        -3.115716         1.945382         1.216549
 O        -2.426215         1.775183         0.045239
 C        -1.121745         1.734843         0.613510
 C        -0.776840         1.723142         3.008589
 C         0.427310         1.234688         2.228683
 H         1.119555        -0.602102         0.674425
 H        -2.204484        -0.415654         0.998143
 H        -1.327370        -0.773322         2.515511
 H        -4.002775         1.333234         1.275333
 H        -3.280605         3.040561         1.444910
 H        -0.614465         2.674901         0.554947
 H        -0.859664         2.857396         3.192079
 H        -0.998636         1.165647         3.879477
 H         1.362665         1.851272         2.178855
 H         0.794976         0.326507         2.748444
