19
Iteration:  4511charge 0 multiplicity 1
 O         0.554703        -0.169636         0.094858
 C        -0.303865         0.488073         0.961915
 C        -1.743535        -0.000609         1.339692
 C        -1.774661         1.551739         1.907767
 C        -3.048109         2.121986         1.297847
 O        -2.266062         2.103264         0.022009
 C        -0.951922         1.899668         0.773357
 C        -0.889910         1.525043         3.168109
 C         0.375821         0.856630         2.375228
 H         0.875442        -0.928764         0.685339
 H        -2.404304        -0.165182         0.467371
 H        -1.794963        -0.800638         2.038422
 H        -3.789933         1.271132         1.360910
 H        -3.456336         3.144649         1.394137
 H        -0.229768         2.758887         0.671293
 H        -0.674645         2.566395         3.400044
 H        -1.209883         0.871449         3.970549
 H         1.300079         1.437852         2.195666
 H         0.636358        -0.001530         2.966776
