19
Iteration:   686charge 0 multiplicity 1
 O         0.465919        -0.212013        -0.024656
 C        -0.205787         0.525087         1.018333
 C        -1.508046        -0.095818         1.612277
 C        -1.831736         1.444456         1.950454
 C        -3.069643         1.956212         1.313348
 O        -2.357128         1.955224         0.018002
 C        -1.053587         1.866326         0.706092
 C        -0.923688         1.755650         3.035320
 C         0.402036         1.079950         2.347273
 H         1.418628        -0.366721         0.114208
 H        -1.986997        -0.402294         0.682107
 H        -1.429570        -0.773677         2.459072
 H        -4.045442         1.520403         1.237913
 H        -3.288604         3.002285         1.476909
 H        -0.567569         2.787671         0.733203
 H        -0.636360         2.830447         3.158606
 H        -1.103879         1.376669         4.068705
 H         1.298750         1.852805         2.289549
 H         0.711367         0.284736         2.994078
