19
Iteration:    19
 O         0.502172        -0.114791         0.164457
 C        -0.320666         0.602184         0.963974
 C        -1.422485        -0.107434         1.795740
 C        -1.882431         1.378245         1.961740
 C        -3.156071         2.005156         1.210577
 O        -2.397298         1.842140        -0.021903
 C        -1.155968         1.773869         0.640929
 C        -0.742920         1.681908         3.048231
 C         0.469485         1.274001         2.152402
 H         1.357299        -0.121145         0.573098
 H        -2.072929        -0.599137         1.103707
 H        -1.123612        -0.793578         2.594478
 H        -4.070754         1.426983         1.126222
 H        -3.516396         3.067585         1.349275
 H        -0.558157         2.665253         0.391553
 H        -0.635153         2.626151         3.687254
 H        -0.783264         0.937639         3.840964
 H         1.375094         1.938204         2.055948
 H         0.705913         0.309722         2.619896
