19
Iteration:   128
 O         0.504785         0.036288         0.036500
 C        -0.323870         0.483303         1.051226
 C        -1.575127        -0.062449         1.651572
 C        -1.766905         1.484290         2.005752
 C        -2.955010         1.943640         1.264277
 O        -2.382740         1.723750        -0.062622
 C        -1.129167         1.775737         0.649118
 C        -0.788610         1.748862         3.117291
 C         0.373236         1.158710         2.291815
 H         0.867581        -0.831779         0.298053
 H        -2.298929        -0.434920         0.968394
 H        -1.468961        -0.781441         2.495491
 H        -3.928408         1.452036         1.402872
 H        -3.091379         3.064863         1.379042
 H        -0.532534         2.775601         0.448982
 H        -0.591196         2.860454         3.280334
 H        -1.060247         1.135821         3.972556
 H         0.895227         2.101820         1.939650
 H         1.070923         0.500040         2.766568
