19
Iteration:   753charge 0 multiplicity 1
 O         0.609604        -0.090408         0.140429
 C        -0.302590         0.494683         0.974058
 C        -1.636344        -0.107712         1.648393
 C        -1.882847         1.429612         1.974036
 C        -3.076525         2.073359         1.247195
 O        -2.398036         1.942535        -0.037190
 C        -1.125740         1.820347         0.653691
 C        -0.697037         1.658655         3.060912
 C         0.419452         1.038396         2.239241
 H         1.375115        -0.277338         0.676723
 H        -2.404553        -0.488964         0.877645
 H        -1.552610        -0.778255         2.539904
 H        -4.031714         1.573609         1.373027
 H        -3.243995         3.097458         1.591591
 H        -0.517821         2.662952         0.434203
 H        -0.576293         2.720944         3.294885
 H        -0.988244         1.219847         4.051727
 H         1.088053         1.933857         2.085447
 H         0.915811         0.203168         2.756124
