19
Iteration:  3419
 O         0.592270         0.029833        -0.000469
 C        -0.283458         0.568605         0.958923
 C        -1.608555        -0.122498         1.704746
 C        -1.818923         1.455210         2.018867
 C        -3.032171         2.113483         1.220705
 O        -2.307136         1.969353        -0.080044
 C        -1.084184         1.736011         0.685370
 C        -0.797118         1.687781         3.132397
 C         0.256201         0.865347         2.322588
 H         0.943447        -0.775620         0.331440
 H        -2.261864        -0.457882         0.902918
 H        -1.503034        -0.911145         2.524403
 H        -4.032217         1.601728         1.322396
 H        -3.193836         3.171555         1.546212
 H        -0.367326         2.672193         0.713595
 H        -0.501405         2.709480         3.178551
 H        -1.001595         1.288710         4.141290
 H         1.157370         1.496800         2.138967
 H         0.449806        -0.030721         2.866042
