19
Iteration:   623charge 0 multiplicity 1
 O         0.618526        -0.339940         0.060480
 C        -0.222997         0.595016         0.979569
 C        -1.563023        -0.043102         1.486760
 C        -1.820918         1.485111         1.937373
 C        -3.065567         2.075883         1.346425
 O        -2.439120         1.856995         0.057570
 C        -1.076612         1.883549         0.586719
 C        -0.912230         1.656022         3.169453
 C         0.413092         1.141582         2.361941
 H         1.225193         0.296611        -0.306673
 H        -2.344644        -0.347357         0.751895
 H        -1.414015        -0.847594         2.265255
 H        -4.036748         1.564567         1.490999
 H        -3.084715         3.187126         1.484475
 H        -0.531224         2.900235         0.280575
 H        -0.800810         2.698620         3.418368
 H        -1.233718         1.036962         4.005230
 H         1.221121         1.804338         2.284929
 H         0.937804         0.284284         2.928455
