19
Iteration:  3730charge 0 multiplicity 1
 O         0.465575        -0.104352        -0.007489
 C        -0.323814         0.553242         1.006782
 C        -1.648917        -0.125505         1.529941
 C        -1.777444         1.401616         1.949278
 C        -2.973708         2.087751         1.245324
 O        -2.212372         2.020378        -0.028929
 C        -0.964401         1.857538         0.685808
 C        -0.932298         1.611920         3.157621
 C         0.306972         1.016335         2.458111
 H         0.203285        -0.968388        -0.379982
 H        -2.307553        -0.444036         0.738179
 H        -1.562756        -0.840309         2.318723
 H        -3.933460         1.703149         1.308979
 H        -2.889248         3.148623         1.565184
 H        -0.318052         2.645024         0.785433
 H        -0.602368         2.622920         3.392281
 H        -1.044173         1.067886         4.108455
 H         1.035457         1.820979         2.263791
 H         0.964443         0.150091         2.992716
