19
Iteration:  3040
 O         0.652091        -0.223109         0.109927
 C        -0.256489         0.505942         1.037499
 C        -1.630178         0.012737         1.518280
 C        -1.837313         1.443165         1.904981
 C        -2.999213         2.133120         1.359725
 O        -2.433832         1.919180         0.056329
 C        -1.031613         1.853171         0.605313
 C        -0.906857         1.609254         3.071412
 C         0.438868         1.021626         2.367667
 H         0.370120        -0.109215        -0.772055
 H        -2.263263        -0.276604         0.695233
 H        -1.361580        -0.811906         2.164824
 H        -4.017588         1.574009         1.630820
 H        -3.082421         3.259974         1.518604
 H        -0.448272         2.898302         0.352010
 H        -0.882674         2.681899         3.249418
 H        -1.240023         1.153443         3.959765
 H         1.163046         1.816385         2.358254
 H         0.780769         0.112443         2.721535
