19
Iteration:  2690
 O         0.577720        -0.143707         0.170803
 C        -0.330931         0.499728         0.919868
 C        -1.569461        -0.073451         1.474786
 C        -1.808302         1.457606         1.984657
 C        -3.028943         2.017855         1.323146
 O        -2.340391         1.991897        -0.008845
 C        -1.001331         1.867852         0.665614
 C        -0.861716         1.703940         3.131064
 C         0.341626         0.960340         2.343036
 H         0.185050        -0.566887        -0.603027
 H        -2.332008        -0.299267         0.689679
 H        -1.413238        -0.851771         2.279955
 H        -3.887307         1.486968         1.411885
 H        -3.032628         3.126591         1.596163
 H        -0.430967         2.753139         0.456888
 H        -0.767053         2.803984         3.208427
 H        -1.002964         1.321505         4.185004
 H         1.156436         1.718810         2.063777
 H         0.672207         0.120569         2.928463
