19
Iteration:  1990
 O         0.662232        -0.059701         0.087698
 C        -0.321558         0.493199         0.961737
 C        -1.609742        -0.149509         1.587978
 C        -1.846773         1.460900         1.991212
 C        -3.053401         2.050250         1.294074
 O        -2.368138         1.911241        -0.034794
 C        -1.094173         1.765380         0.690706
 C        -0.830642         1.844164         3.095705
 C         0.348023         0.967403         2.371660
 H         0.349779         0.007834        -0.831224
 H        -2.239140        -0.456658         0.751804
 H        -1.485569        -0.896034         2.417696
 H        -4.082954         1.575684         1.391102
 H        -3.074456         3.070126         1.667854
 H        -0.423692         2.562485         0.582021
 H        -0.352393         2.833203         3.084191
 H        -0.851156         1.444250         4.107781
 H         1.324949         1.456371         2.064193
 H         0.859075        -0.011966         2.914687
