19
Iteration:  4867charge 0 multiplicity 1
 O         0.476739        -0.062528         0.007990
 C        -0.353651         0.512293         1.028175
 C        -1.661771        -0.081938         1.620424
 C        -1.804051         1.334264         1.942989
 C        -2.915571         2.082056         1.220908
 O        -2.103007         2.173585        -0.031530
 C        -0.919743         1.833084         0.798897
 C        -0.977417         1.566051         3.055006
 C         0.267733         0.905321         2.343457
 H        -0.054114        -0.737606        -0.416830
 H        -2.420677        -0.378739         0.873085
 H        -1.512765        -0.804754         2.421914
 H        -3.822698         1.495769         1.148378
 H        -3.116936         3.080917         1.686730
 H        -0.257242         2.601180         0.746924
 H        -0.988959         2.672120         3.379255
 H        -1.247064         1.308225         4.106483
 H         1.097934         1.581708         2.286417
 H         0.560972        -0.008603         2.931156
