19
Iteration:  3753charge 0 multiplicity 1
 O         0.546153        -0.163533         0.066154
 C        -0.249330         0.578870         0.997743
 C        -1.592970        -0.020557         1.456793
 C        -1.853322         1.434817         1.976880
 C        -3.051628         2.195260         1.268319
 O        -2.314238         1.995477        -0.013352
 C        -1.026206         1.831675         0.745862
 C        -0.908076         1.587886         3.113587
 C         0.390049         0.935592         2.345359
 H         0.757909        -1.023583         0.442891
 H        -2.161793        -0.283752         0.561641
 H        -1.706508        -0.728353         2.236572
 H        -4.006147         1.823293         1.217898
 H        -3.023054         3.292161         1.457223
 H        -0.419895         2.671228         0.746060
 H        -0.741977         2.564760         3.527069
 H        -1.101158         0.860497         3.945931
 H         1.316782         1.472275         2.150278
 H         0.705685        -0.083868         2.921076
