19
Iteration:  2556charge 0 multiplicity 1
 O         0.660818        -0.183149         0.103121
 C        -0.304876         0.454048         0.995428
 C        -1.631412        -0.015916         1.552931
 C        -1.856420         1.536261         1.994547
 C        -3.115817         2.041315         1.277757
 O        -2.315079         1.942720        -0.021207
 C        -1.086837         1.908687         0.712919
 C        -0.783686         1.645658         3.160412
 C         0.385727         0.981393         2.294504
 H         0.299158        -0.179007        -0.754907
 H        -2.364371        -0.211505         0.734630
 H        -1.668294        -0.760234         2.414393
 H        -3.935875         1.355405         1.279328
 H        -3.402278         3.158345         1.501618
 H        -0.428640         2.735395         0.402428
 H        -0.583193         2.728789         3.333361
 H        -0.980660         0.991315         4.039087
 H         1.191365         1.706088         2.002846
 H         0.899370         0.094671         2.791313
