19
Iteration:  4756
 O         0.479128        -0.251238         0.203753
 C        -0.320488         0.562139         0.988776
 C        -1.654612        -0.113517         1.400211
 C        -1.905554         1.310832         1.927872
 C        -2.953069         2.177775         1.240545
 O        -2.200780         2.202460        -0.005068
 C        -0.977682         1.900225         0.827344
 C        -0.894501         1.514609         3.035998
 C         0.340649         0.884801         2.337599
 H         1.034184         0.408396        -0.265933
 H        -2.294916        -0.467848         0.589499
 H        -1.478094        -0.820293         2.172216
 H        -3.973643         1.709709         1.216865
 H        -3.089397         3.239917         1.650149
 H        -0.473434         2.815053         0.895388
 H        -0.747671         2.553353         3.317254
 H        -1.115279         1.048479         4.029962
 H         1.009139         1.702702         2.153298
 H         0.891011         0.136246         2.874391
