19
Iteration:  3858charge 0 multiplicity 1
 O         0.501147        -0.021439         0.048376
 C        -0.350948         0.493202         1.016410
 C        -1.748127        -0.013300         1.506112
 C        -1.807613         1.485590         1.978747
 C        -2.975394         2.089717         1.187976
 O        -2.204974         2.009346        -0.062852
 C        -0.918135         1.862414         0.761800
 C        -0.893094         1.500306         3.194312
 C         0.389927         0.922390         2.392740
 H         0.287111        -0.970073        -0.143999
 H        -2.436712        -0.426579         0.730626
 H        -1.615535        -0.728226         2.383706
 H        -4.042689         1.565422         1.085511
 H        -3.284713         3.105247         1.387468
 H        -0.267285         2.700799         0.765278
 H        -0.548440         2.478379         3.602334
 H        -1.368397         0.927438         3.983183
 H         1.098671         1.782504         2.103892
 H         0.919649         0.075706         2.785137
