19
Iteration:  2872
 O         0.458062        -0.089946         0.104348
 C        -0.266410         0.547026         0.991955
 C        -1.544036         0.015243         1.493496
 C        -1.831718         1.420326         1.947260
 C        -3.064763         2.071196         1.274135
 O        -2.274712         1.850216         0.004705
 C        -0.984720         1.894802         0.677788
 C        -0.825354         1.623143         3.116713
 C         0.364459         0.998023         2.371201
 H        -0.104616        -0.654249        -0.394757
 H        -2.237824        -0.324770         0.749513
 H        -1.430655        -0.666418         2.317480
 H        -4.098987         1.499827         1.277888
 H        -3.198949         3.210202         1.555062
 H        -0.322355         2.897096         0.534405
 H        -0.751091         2.680980         3.440118
 H        -0.969908         0.929810         3.974562
 H         1.122218         1.671319         2.209712
 H         0.727255         0.146167         3.031009
