19
Iteration:  1115charge 0 multiplicity 1
 O         0.637930        -0.018845         0.104270
 C        -0.299214         0.581476         0.988180
 C        -1.642258        -0.058361         1.664644
 C        -1.811303         1.452630         1.989512
 C        -3.011136         2.016676         1.278847
 O        -2.412791         1.768098        -0.040782
 C        -1.121569         1.820267         0.657228
 C        -0.774767         1.779739         3.049367
 C         0.423426         1.001757         2.331056
 H         0.193161        -0.706973        -0.502720
 H        -2.433709        -0.384953         0.983687
 H        -1.721586        -0.616124         2.583313
 H        -3.874133         1.374695         1.394567
 H        -3.188477         3.112329         1.361196
 H        -0.526153         2.780365         0.397140
 H        -0.590702         2.807163         3.332479
 H        -1.032321         1.214271         4.046436
 H         1.396913         1.582273         2.066854
 H         0.853062         0.110756         2.727119
