19
Iteration:  2235
 O         0.693201        -0.149305         0.242923
 C        -0.326256         0.512447         0.945189
 C        -1.566675        -0.086702         1.577585
 C        -1.791530         1.463467         1.998404
 C        -3.083794         2.016231         1.275920
 O        -2.460315         2.053677        -0.024067
 C        -1.143481         1.851471         0.637019
 C        -0.742428         1.690411         3.078407
 C         0.393253         0.970115         2.256831
 H         0.377333        -0.682430        -0.574650
 H        -2.161732        -0.411076         0.763320
 H        -1.530237        -0.776926         2.375708
 H        -4.040561         1.509004         1.204509
 H        -3.451015         3.066830         1.537057
 H        -0.577466         2.829369         0.658618
 H        -0.387547         2.692665         3.307049
 H        -0.879492         1.068778         3.939602
 H         1.177740         1.609304         2.138798
 H         0.713091         0.012112         2.831711
