19
Iteration:  1349charge 0 multiplicity 1
 O         0.670586        -0.126102         0.154933
 C        -0.288957         0.538088         0.958453
 C        -1.579440         0.024101         1.528777
 C        -1.805189         1.436329         1.976739
 C        -3.081813         2.092180         1.271198
 O        -2.489619         1.857011         0.019191
 C        -1.049456         1.835613         0.598396
 C        -0.808452         1.655480         3.095570
 C         0.353714         1.014631         2.297510
 H         0.972134        -0.920237         0.560380
 H        -2.306496        -0.388184         0.830402
 H        -1.408258        -0.695282         2.405827
 H        -3.914500         1.602774         1.633410
 H        -3.204596         3.198811         1.520382
 H        -0.533554         2.777604         0.232139
 H        -0.645016         2.793267         3.257956
 H        -1.023524         1.262120         4.091830
 H         1.131195         1.725107         2.024543
 H         0.981194         0.182319         2.843864
