19
Iteration:  4503charge 0 multiplicity 1
 O         0.586037        -0.243304         0.047789
 C        -0.321908         0.476773         0.904710
 C        -1.696550         0.066678         1.406318
 C        -1.774881         1.465494         1.935426
 C        -3.028651         2.099884         1.323728
 O        -2.219836         2.129864         0.036777
 C        -0.939815         1.919280         0.720760
 C        -0.920931         1.532500         3.169867
 C         0.296818         0.901812         2.368085
 H         0.915943        -0.977239         0.656222
 H        -2.425732        -0.079347         0.620127
 H        -1.783177        -0.722397         2.107838
 H        -3.846796         1.383918         1.200090
 H        -3.559882         2.976106         1.576707
 H        -0.374184         2.963064         0.731591
 H        -0.710851         2.464261         3.561275
 H        -1.364624         1.008702         3.984322
 H         1.098559         1.575264         2.268179
 H         0.664316         0.072031         2.897543
