19
Iteration:   764charge 0 multiplicity 1
 O         0.583825        -0.138789         0.088137
 C        -0.322064         0.525795         1.059412
 C        -1.568086        -0.121916         1.580418
 C        -1.766425         1.391764         1.949599
 C        -3.033702         2.030740         1.342202
 O        -2.431876         1.999945        -0.025262
 C        -1.085489         1.782993         0.593500
 C        -0.831752         1.755554         3.105050
 C         0.342865         1.053727         2.316396
 H         1.349378        -0.535427         0.482642
 H        -2.289539        -0.428305         0.724727
 H        -1.564441        -0.848744         2.445525
 H        -3.940158         1.468764         1.171323
 H        -3.143703         3.096923         1.553317
 H        -0.559681         2.665014         0.404665
 H        -0.549829         2.805860         3.085803
 H        -0.942036         1.272099         4.124712
 H         1.134697         1.738891         1.803863
 H         1.074785         0.354033         2.749289
