19
Iteration:  4416
 O         0.524855        -0.005754         0.037665
 C        -0.271793         0.528870         1.005490
 C        -1.646870        -0.017987         1.427297
 C        -1.787208         1.600116         1.954921
 C        -2.973047         2.172503         1.288959
 O        -2.297203         1.936385        -0.048825
 C        -0.946502         1.918752         0.700009
 C        -0.877789         1.531337         3.115050
 C         0.276408         0.706436         2.478561
 H         0.896830        -0.878937         0.233506
 H        -2.223701        -0.375975         0.535689
 H        -1.809821        -0.660785         2.303298
 H        -3.936796         1.613878         1.394837
 H        -3.196508         3.273508         1.469563
 H        -0.419214         2.827196         0.454614
 H        -0.550836         2.476393         3.460933
 H        -1.443796         1.044061         3.945929
 H         1.268759         1.133726         2.561368
 H         0.331833        -0.221413         3.078794
