19
Iteration:   680
 O         0.499627        -0.232923        -0.021387
 C        -0.241480         0.545445         1.014260
 C        -1.488833        -0.042581         1.605715
 C        -1.868746         1.398323         1.939017
 C        -3.113103         1.984537         1.279694
 O        -2.343973         1.984101         0.011725
 C        -1.053503         1.823440         0.761356
 C        -0.851790         1.733628         3.053569
 C         0.398128         1.077250         2.321741
 H         1.449657        -0.237786         0.323544
 H        -2.253785        -0.515041         0.911568
 H        -1.289730        -0.779808         2.429496
 H        -4.063514         1.367758         1.199785
 H        -3.419165         3.054063         1.473578
 H        -0.591808         2.919480         0.811516
 H        -0.623464         2.794937         3.020557
 H        -1.039868         1.526132         4.110109
 H         1.060632         1.849095         2.129644
 H         0.741572         0.147879         2.944587
