19
Iteration:  2007
 O         0.624398        -0.053236         0.087406
 C        -0.228094         0.519527         1.018154
 C        -1.585280        -0.080930         1.565743
 C        -1.820441         1.395674         1.969026
 C        -2.967245         2.153105         1.347927
 O        -2.426021         1.813933        -0.009160
 C        -1.076538         1.775706         0.666220
 C        -0.838804         1.716475         3.023183
 C         0.380263         0.971653         2.386208
 H         0.120079         0.049069        -0.762981
 H        -2.328543        -0.418182         0.820334
 H        -1.516087        -0.798480         2.400900
 H        -4.063427         1.884493         1.372091
 H        -3.058929         3.284124         1.345724
 H        -0.574777         2.833694         0.565618
 H        -0.819428         2.804028         2.993422
 H        -1.182888         1.341491         4.019723
 H         1.197167         1.669802         2.266878
 H         0.527932         0.145792         2.924077
