19
Iteration:  4016
 O         0.543364         0.039520         0.013469
 C        -0.306904         0.502710         0.984594
 C        -1.763577        -0.147996         1.461292
 C        -1.826341         1.422845         1.949671
 C        -2.905501         2.174610         1.263482
 O        -2.220446         2.056272        -0.038162
 C        -0.963011         1.843523         0.696418
 C        -0.943597         1.596377         3.175808
 C         0.298608         0.795660         2.474183
 H         1.091709        -0.730022         0.385441
 H        -2.440167        -0.424305         0.692104
 H        -1.699278        -0.832799         2.294997
 H        -3.937010         1.768817         1.066941
 H        -3.064335         3.248241         1.604752
 H        -0.276847         2.645778         0.485333
 H        -0.764729         2.659891         3.363552
 H        -1.306333         1.032913         4.084604
 H         1.304708         1.358839         2.311715
 H         0.683698        -0.110967         2.944893
