19
Iteration:  1729charge 0 multiplicity 1
 O         0.661566        -0.130263         0.132415
 C        -0.315337         0.557282         1.010575
 C        -1.631127        -0.057556         1.555804
 C        -1.772912         1.568716         2.001539
 C        -3.028332         1.946086         1.238253
 O        -2.426642         1.878691        -0.060137
 C        -1.120903         1.898655         0.673607
 C        -0.738011         1.737075         3.110639
 C         0.400039         0.910387         2.368506
 H         0.110821        -0.392585        -0.592256
 H        -2.434857        -0.287757         0.864876
 H        -1.435971        -0.720988         2.346969
 H        -4.073727         1.526248         1.324582
 H        -3.423156         2.947874         1.619269
 H        -0.470792         2.826191         0.435723
 H        -0.534808         2.825624         3.102078
 H        -1.197826         1.391568         4.132459
 H         1.348158         1.522219         2.176532
 H         0.672554         0.048137         2.839261
