19
Iteration:  4858
 O         0.494116        -0.042651        -0.038878
 C        -0.384290         0.419945         0.988205
 C        -1.664947        -0.067947         1.543276
 C        -1.871635         1.432967         2.001298
 C        -2.917084         2.064173         1.262529
 O        -2.088043         2.152687        -0.033303
 C        -0.942131         1.784974         0.769386
 C        -0.973967         1.627979         3.153319
 C         0.293209         0.940576         2.397169
 H         0.161880        -0.881500        -0.382524
 H        -2.483560        -0.398208         0.881182
 H        -1.473359        -0.894031         2.375153
 H        -3.766099         1.469286         0.950585
 H        -3.249974         3.163020         1.543057
 H        -0.163061         2.536358         0.755651
 H        -0.690464         2.701977         3.243828
 H        -1.199793         0.939709         3.931652
 H         1.224946         1.550384         2.346226
 H         0.513007         0.025307         3.035740
