19
Iteration:  2763charge 0 multiplicity 1
 O         0.551277        -0.177426         0.190537
 C        -0.316788         0.568731         1.004272
 C        -1.595911        -0.005281         1.491209
 C        -1.847477         1.460797         1.977785
 C        -2.978631         2.124044         1.297830
 O        -2.390934         1.863111        -0.078602
 C        -1.028280         1.836134         0.648767
 C        -0.819465         1.550647         3.152736
 C         0.416623         1.064733         2.339566
 H         0.227122         0.143481        -0.716903
 H        -2.290200        -0.282008         0.720074
 H        -1.438412        -0.700947         2.323720
 H        -4.080218         1.703582         1.436498
 H        -2.792849         3.150478         1.451221
 H        -0.491521         2.816742         0.470937
 H        -0.630250         2.450265         3.730824
 H        -1.242490         0.780782         3.789541
 H         1.013362         1.942077         2.150763
 H         1.032938         0.211386         2.820507
