19
Iteration:  2767charge 0 multiplicity 1
 O         0.556400        -0.188571         0.187320
 C        -0.282647         0.577603         1.028066
 C        -1.603103        -0.016804         1.490994
 C        -1.840361         1.473271         1.967323
 C        -2.999724         2.147375         1.305128
 O        -2.400443         1.846696        -0.075198
 C        -1.034972         1.860428         0.639736
 C        -0.842978         1.536301         3.163074
 C         0.432392         1.040975         2.320166
 H         0.319420         0.124766        -0.661924
 H        -2.263445        -0.405023         0.650892
 H        -1.489534        -0.780242         2.307829
 H        -3.998560         1.891271         1.334224
 H        -2.865967         3.227580         1.615813
 H        -0.556936         2.768061         0.495485
 H        -0.691553         2.484395         3.707077
 H        -1.257993         0.790514         3.863494
 H         1.084426         1.993561         2.035273
 H         1.114692         0.327939         2.798377
