19
Iteration:   691
 O         0.432013        -0.185488        -0.013293
 C        -0.182455         0.520605         1.014413
 C        -1.518247        -0.115296         1.593182
 C        -1.804849         1.449038         1.962555
 C        -3.037067         1.965661         1.316771
 O        -2.365794         1.921498         0.008665
 C        -1.072128         1.873067         0.657994
 C        -0.938046         1.787289         3.050655
 C         0.416782         1.101036         2.376402
 H         1.367153        -0.403371         0.034094
 H        -1.948143        -0.415197         0.601426
 H        -1.566891        -0.841180         2.454749
 H        -4.030936         1.426324         1.328099
 H        -3.153265         3.054415         1.631777
 H        -0.397360         2.876562         0.583163
 H        -0.799392         2.837381         3.266237
 H        -1.171320         1.194962         3.948696
 H         1.290873         1.667517         2.373766
 H         0.806652         0.238900         3.092758
