19
Iteration:  3955
 O         0.595573        -0.148573         0.142344
 C        -0.294558         0.521104         1.012287
 C        -1.649470        -0.030671         1.492406
 C        -1.826074         1.444527         1.928387
 C        -2.984493         2.097378         1.227740
 O        -2.175004         2.198558        -0.034056
 C        -1.024672         1.849856         0.729580
 C        -0.927695         1.449430         3.117172
 C         0.279136         0.925214         2.354504
 H        -0.034005        -0.731397        -0.388343
 H        -2.436061        -0.299202         0.744170
 H        -1.725011        -0.754532         2.355704
 H        -3.864855         1.495425         1.084370
 H        -3.250163         2.959321         1.826979
 H        -0.440148         2.823192         0.665461
 H        -0.736629         2.455422         3.608241
 H        -1.108092         0.787646         3.930791
 H         1.034306         1.815901         2.209594
 H         0.810597        -0.031766         2.794959
