19
Iteration:   550charge 0 multiplicity 1
 O         0.623013        -0.182416         0.061987
 C        -0.407068         0.521032         0.921315
 C        -1.633859        -0.074132         1.691596
 C        -1.834904         1.490807         2.011125
 C        -3.121005         1.896267         1.233352
 O        -2.308707         1.981714         0.011470
 C        -1.026311         1.869432         0.672181
 C        -0.789382         1.773418         3.135694
 C         0.400199         0.987498         2.318916
 H         0.973599         0.585175        -0.388919
 H        -2.353305        -0.486361         0.927704
 H        -1.463245        -0.752725         2.535302
 H        -3.897188         1.119361         0.968874
 H        -3.746612         2.806827         1.398092
 H        -0.380358         2.660042         0.480163
 H        -0.609831         2.846233         3.124407
 H        -1.032186         1.429658         4.186623
 H         1.193849         1.733548         2.038917
 H         1.067326         0.085073         2.658652
