19
Iteration:  1791
 O         0.669642        -0.136409         0.161644
 C        -0.308197         0.560056         1.012421
 C        -1.633254        -0.101219         1.621706
 C        -1.843548         1.439670         1.972279
 C        -3.009911         2.081500         1.270858
 O        -2.369684         1.979545        -0.035391
 C        -1.100748         1.731761         0.652739
 C        -0.841753         1.561304         3.124006
 C         0.425025         1.189191         2.246064
 H         0.125160        -0.663288        -0.425440
 H        -2.365286        -0.497999         0.857488
 H        -1.568057        -0.885999         2.409764
 H        -3.994457         1.699449         1.194241
 H        -3.157305         3.224275         1.555107
 H        -0.519732         2.578870         0.361780
 H        -0.753991         2.607333         3.482208
 H        -0.958195         1.008979         4.043762
 H         0.992029         2.069703         1.919846
 H         0.988700         0.214219         2.695228
