19
Iteration:   499
 O         0.571297        -0.276375         0.073907
 C        -0.209352         0.531635         0.965616
 C        -1.564102        -0.024528         1.457706
 C        -1.833604         1.450497         1.997301
 C        -2.994498         2.093003         1.322727
 O        -2.441424         1.836568         0.039161
 C        -1.063059         1.831874         0.674267
 C        -0.876908         1.629382         3.135426
 C         0.324755         1.185057         2.341916
 H         1.486134        -0.024950         0.083720
 H        -2.208996        -0.281939         0.594861
 H        -1.370863        -0.756934         2.220041
 H        -4.046189         1.809565         1.268789
 H        -2.978790         3.165322         1.476092
 H        -0.632500         2.924225         0.469236
 H        -0.863634         2.696223         3.506061
 H        -0.968557         1.007723         4.042748
 H         0.997533         2.031371         1.952296
 H         0.935151         0.480002         2.750386
