19
Iteration:   468charge 0 multiplicity 1
 O         0.626975        -0.056076         0.144073
 C        -0.315736         0.530293         1.055190
 C        -1.697523        -0.059020         1.653578
 C        -1.839695         1.464918         1.968675
 C        -3.094257         2.068736         1.233919
 O        -2.448632         1.947289        -0.042769
 C        -1.059216         1.778357         0.603948
 C        -0.689251         1.543538         3.087687
 C         0.405238         1.018325         2.256607
 H         1.570620         0.037692         0.520261
 H        -2.381554        -0.562094         0.938477
 H        -1.500247        -0.579011         2.602722
 H        -4.003373         1.494610         1.138829
 H        -3.173429         3.193219         1.474891
 H        -0.409807         2.678494         0.434407
 H        -0.649088         2.629268         3.376148
 H        -0.892934         0.995052         3.962532
 H         0.916833         1.889087         1.854471
 H         0.980771         0.211614         2.669481
