19
Iteration:  2360
 O         0.616630        -0.212293         0.228346
 C        -0.240707         0.527509         0.984368
 C        -1.522144        -0.011555         1.447885
 C        -1.815223         1.437223         1.907418
 C        -3.084917         2.091578         1.392771
 O        -2.452602         1.958204         0.001838
 C        -1.085453         1.907742         0.631898
 C        -0.834181         1.689425         3.021007
 C         0.439308         0.967015         2.339466
 H         0.192708        -0.729324        -0.488817
 H        -2.107591        -0.338339         0.504440
 H        -1.563227        -0.878072         2.211039
 H        -3.898267         1.369094         1.540367
 H        -3.276316         3.175365         1.751667
 H        -0.622947         2.926362         0.634761
 H        -0.775432         2.748078         3.372689
 H        -1.112100         1.199712         4.024607
 H         1.437124         1.607180         2.145962
 H         0.657933         0.071006         2.835977
