19
Iteration:  2662charge 0 multiplicity 1
 O         0.691664        -0.201171         0.192455
 C        -0.228284         0.529258         0.986971
 C        -1.735329        -0.040320         1.556514
 C        -1.880025         1.516563         1.971680
 C        -3.097340         2.174334         1.268387
 O        -2.410699         1.935743        -0.020550
 C        -1.055875         1.827416         0.635569
 C        -0.797569         1.500581         3.129608
 C         0.497917         1.059767         2.284623
 H         0.379274        -0.136067        -0.678574
 H        -2.350779        -0.408784         0.742219
 H        -1.763421        -0.725936         2.364664
 H        -4.272593         1.926377         1.479765
 H        -2.997869         3.249084         1.413073
 H        -0.533626         2.803529         0.273951
 H        -0.839420         2.335967         3.838899
 H        -0.892098         0.723989         3.871172
 H         1.146721         1.855401         2.018310
 H         1.024898         0.200074         2.840911
