19
Iteration:  1971charge 0 multiplicity 1
 O         0.629367        -0.103046         0.174043
 C        -0.325835         0.501233         0.993853
 C        -1.635917        -0.049413         1.612102
 C        -1.817628         1.407002         1.980521
 C        -3.119540         1.989505         1.227175
 O        -2.327472         1.967107         0.021278
 C        -1.065587         1.852575         0.692473
 C        -0.743294         1.693354         3.029675
 C         0.371358         1.021720         2.253837
 H         0.175751        -0.224655        -0.729253
 H        -2.429451        -0.346884         0.946572
 H        -1.431342        -0.731795         2.386215
 H        -3.744668         1.193876         1.253672
 H        -3.541434         2.956704         1.564243
 H        -0.545167         2.841671         0.633263
 H        -0.691131         2.820561         3.064376
 H        -1.001243         1.390592         4.107373
 H         1.429554         1.513988         2.198358
 H         0.823910         0.160873         2.888805
