19
Iteration:   291
 O         0.524093        -0.067341         0.074964
 C        -0.269422         0.502677         1.044318
 C        -1.660325        -0.062917         1.667516
 C        -1.860472         1.461525         1.999700
 C        -3.160614         1.932751         1.199794
 O        -2.320796         1.933226        -0.021191
 C        -1.080952         1.822297         0.684420
 C        -0.745239         1.692800         3.086342
 C         0.476645         1.076111         2.245499
 H         1.470450        -0.134077         0.419839
 H        -2.396342        -0.552507         1.006379
 H        -1.675989        -0.689535         2.587957
 H        -4.018227         1.246510         1.299640
 H        -3.618602         2.918198         1.306280
 H        -0.459572         2.577379         0.334329
 H        -0.563632         2.752126         3.209850
 H        -0.820031         1.175948         4.059434
 H         1.264242         1.882127         2.045813
 H         0.997790         0.259363         2.647096
