19
Iteration:  1144
 O         0.519519        -0.123685         0.016732
 C        -0.210722         0.638621         0.996880
 C        -1.486032        -0.084199         1.522397
 C        -1.847323         1.463532         2.019432
 C        -3.068981         2.019652         1.308138
 O        -2.395682         1.811292        -0.028878
 C        -1.095184         1.811106         0.732143
 C        -0.825719         1.864729         3.072860
 C         0.410791         0.998103         2.366206
 H         0.600712        -1.022298         0.274240
 H        -2.160349        -0.303934         0.741239
 H        -1.563287        -0.814329         2.344072
 H        -3.978970         1.356445         1.511348
 H        -3.472918         3.033572         1.279690
 H        -0.547299         2.667140         0.512326
 H        -0.623555         2.927723         3.151550
 H        -1.026854         1.475595         4.039133
 H         1.386804         1.518924         2.251244
 H         0.715489         0.015015         2.780114
