19
Iteration:   212charge 0 multiplicity 1
 O         0.756489        -0.102630         0.199453
 C        -0.302879         0.435346         0.984669
 C        -1.582489        -0.089521         1.555312
 C        -1.836957         1.478482         1.988269
 C        -3.173659         2.050976         1.361166
 O        -2.458343         1.872012        -0.010355
 C        -1.061163         1.787588         0.645301
 C        -0.789400         1.816939         3.048773
 C         0.378235         1.033002         2.257794
 H         0.344896        -0.175780        -0.708063
 H        -2.232423        -0.347660         0.729442
 H        -1.354440        -0.805096         2.407799
 H        -3.983442         1.277572         1.442361
 H        -3.406118         3.090886         1.567199
 H        -0.439362         2.624183         0.542873
 H        -0.575864         2.871683         3.124551
 H        -0.941082         1.326131         4.072490
 H         1.072754         1.802646         1.888826
 H         0.999117         0.259348         2.729485
