19
Iteration:   741charge 0 multiplicity 1
 O         0.641645        -0.101433         0.112753
 C        -0.354989         0.530261         0.946019
 C        -1.661867         0.011605         1.648528
 C        -1.855978         1.490030         2.018821
 C        -3.134683         2.120118         1.250899
 O        -2.388261         1.837475        -0.024375
 C        -1.083345         1.782701         0.724198
 C        -0.806442         1.617682         3.046665
 C         0.488705         1.060229         2.213677
 H         1.477380        -0.165742         0.683605
 H        -2.406629        -0.543781         0.996027
 H        -1.375973        -0.662755         2.470748
 H        -4.057265         1.544210         1.206458
 H        -3.253348         3.210884         1.235333
 H        -0.608794         2.693805         0.842998
 H        -0.599917         2.635600         3.437301
 H        -0.823796         0.830862         3.846931
 H         1.492655         1.506148         1.854740
 H         0.830310         0.214502         2.731953
