19
Iteration:  1006
 O         0.613317         0.023225         0.066399
 C        -0.302132         0.509615         1.039680
 C        -1.607404        -0.058857         1.699541
 C        -1.811103         1.510984         1.953605
 C        -3.085878         2.024905         1.267101
 O        -2.416941         1.796136         0.028604
 C        -1.100872         1.770612         0.627656
 C        -0.777751         1.742742         3.006831
 C         0.415017         1.036678         2.287995
 H         0.961077        -0.911327         0.222735
 H        -2.346405        -0.555442         1.073971
 H        -1.453677        -0.727028         2.604204
 H        -3.960114         1.395308         1.382510
 H        -3.554108         3.002175         1.496104
 H        -0.449350         2.656115         0.294574
 H        -0.433337         2.768632         3.006257
 H        -0.962408         1.491794         4.123368
 H         1.282326         1.548641         1.873395
 H         0.845432         0.177308         2.723412
