19
Iteration:  3611
 O         0.538873        -0.127159         0.103222
 C        -0.351175         0.520570         0.978549
 C        -1.617627        -0.106432         1.500716
 C        -1.952441         1.396220         2.039489
 C        -3.065687         2.161583         1.240685
 O        -2.247895         2.034236        -0.020909
 C        -1.004101         1.856856         0.726307
 C        -0.790989         1.513637         3.145994
 C         0.374348         1.017025         2.238810
 H         1.015454        -0.848187         0.515296
 H        -2.248672        -0.471256         0.718512
 H        -1.518900        -0.767726         2.343270
 H        -4.053125         1.777666         1.045867
 H        -3.180529         3.299125         1.386883
 H        -0.395825         2.926606         0.741546
 H        -0.585538         2.524425         3.495080
 H        -0.944708         0.835984         4.039484
 H         0.900820         1.866862         1.990748
 H         1.077861         0.422109         2.866562
