19
Iteration:  2317charge 0 multiplicity 1
 O         0.565946        -0.101714         0.103709
 C        -0.300929         0.518433         1.013260
 C        -1.615886        -0.100633         1.668146
 C        -1.811252         1.446988         1.983615
 C        -3.090855         1.973520         1.250668
 O        -2.286606         2.029352        -0.003466
 C        -1.050789         1.834497         0.754996
 C        -0.836218         1.729233         3.019626
 C         0.418465         0.960285         2.235736
 H        -0.080188        -0.258193        -0.572022
 H        -2.490360        -0.449574         1.030104
 H        -1.376568        -0.868401         2.475196
 H        -3.816683         1.200097         1.006357
 H        -3.398621         2.965408         1.276854
 H        -0.554920         2.718804         0.717348
 H        -0.603350         2.776844         3.272877
 H        -0.992343         1.282813         4.042858
 H         1.384986         1.687796         2.092027
 H         0.747219         0.149487         2.855749
