19
Iteration:  3235
 O         0.552019        -0.166817         0.173746
 C        -0.313582         0.510833         1.007014
 C        -1.638283        -0.064175         1.479245
 C        -1.805586         1.391112         1.979172
 C        -2.983461         2.068935         1.267540
 O        -2.321433         1.965891        -0.021445
 C        -1.063558         1.834098         0.694057
 C        -0.855411         1.640313         3.091051
 C         0.404884         1.100450         2.327709
 H         0.171838        -0.184486        -0.715274
 H        -2.387487        -0.441574         0.823752
 H        -1.630007        -0.720806         2.351349
 H        -3.855965         1.527694         1.281246
 H        -3.164466         3.052407         1.710032
 H        -0.445032         2.756854         0.645673
 H        -0.616958         2.735072         3.456560
 H        -1.015882         1.067687         4.053402
 H         1.134586         1.910651         2.059358
 H         1.015552         0.121422         2.661286
