19
Iteration:  4599charge 0 multiplicity 1
 O         0.464250        -0.178249         0.091877
 C        -0.311729         0.582669         1.022031
 C        -1.667614        -0.011242         1.427313
 C        -1.864792         1.435953         1.964757
 C        -3.049945         2.143350         1.147633
 O        -2.192692         2.096781        -0.017634
 C        -1.003131         1.974988         0.784733
 C        -0.818068         1.459744         3.161335
 C         0.397698         0.865777         2.367608
 H         0.685281        -1.052398         0.560844
 H        -2.232828        -0.169511         0.499845
 H        -1.721369        -0.864207         2.048125
 H        -4.050303         1.600098         0.980051
 H        -3.271693         3.188356         1.536596
 H        -0.455206         2.918499         0.928804
 H        -0.676231         2.486698         3.665039
 H        -1.009909         0.666898         3.933413
 H         1.261562         1.518221         2.106253
 H         0.772259        -0.002528         2.954478
