19
Iteration:   977
 O         0.501424        -0.068106        -0.072568
 C        -0.249647         0.552685         1.044693
 C        -1.487738        -0.061150         1.594421
 C        -1.816766         1.421712         2.047800
 C        -2.971520         2.087302         1.282029
 O        -2.391880         1.683218        -0.017099
 C        -1.155184         1.769377         0.653305
 C        -0.833353         1.788116         3.108158
 C         0.369478         1.177158         2.396274
 H         0.637277        -0.969107         0.167762
 H        -2.218139        -0.391143         0.763917
 H        -1.454140        -0.895084         2.362080
 H        -4.059952         1.770524         1.411026
 H        -2.932613         3.199885         1.435457
 H        -0.807449         2.730446         0.430996
 H        -0.558134         2.870444         3.086856
 H        -1.017743         1.502321         4.067460
 H         1.303636         1.685125         2.216883
 H         0.920830         0.219303         2.878672
