19
Iteration:   962charge 0 multiplicity 1
 O         0.458735        -0.127349        -0.023526
 C        -0.217447         0.613087         0.931818
 C        -1.481377        -0.086280         1.603674
 C        -1.846219         1.433874         2.004792
 C        -3.080574         2.093819         1.236400
 O        -2.413241         1.714945         0.038216
 C        -1.048182         1.810572         0.680793
 C        -0.842894         1.769479         3.131422
 C         0.461238         1.129594         2.345397
 H         0.702762        -1.054769         0.301107
 H        -2.133399        -0.519750         0.849513
 H        -1.269805        -0.835111         2.467484
 H        -4.132320         1.723542         1.311742
 H        -3.188425         3.225301         1.350397
 H        -0.353796         2.708480         0.532182
 H        -0.840203         2.836759         3.318550
 H        -0.984505         1.305734         4.204191
 H         1.057622         2.035557         2.148383
 H         0.908510         0.388819         2.973498
