19
Iteration:  3992
 O         0.462104        -0.092051        -0.004203
 C        -0.221045         0.541547         0.981705
 C        -1.610925         0.052575         1.389365
 C        -1.820977         1.517943         1.985923
 C        -3.003706         2.146422         1.221388
 O        -2.178287         1.936680        -0.023050
 C        -0.995993         1.933187         0.832500
 C        -0.915513         1.480168         3.193043
 C         0.269262         0.845437         2.457798
 H         0.591790        -1.046149         0.160352
 H        -2.166815        -0.062442         0.461279
 H        -1.795925        -0.735925         2.112943
 H        -4.007855         1.599853         0.992539
 H        -3.215075         3.165765         1.275300
 H        -0.436260         2.782594         0.768828
 H        -0.674027         2.458046         3.491370
 H        -1.363750         0.858125         4.013603
 H         1.217386         1.660205         2.424875
 H         0.734854        -0.003797         2.903341
