19
Iteration:  3595charge 0 multiplicity 1
 O         0.536490        -0.095118         0.016686
 C        -0.298096         0.529527         0.988574
 C        -1.700295        -0.031833         1.537588
 C        -1.776266         1.502628         1.944238
 C        -3.020467         2.090795         1.241627
 O        -2.237307         1.969214         0.013737
 C        -1.024535         1.841464         0.767183
 C        -0.912280         1.545184         3.134427
 C         0.385164         1.041271         2.340339
 H         0.599591        -1.000343         0.277067
 H        -2.438697        -0.293809         0.731230
 H        -1.615125        -0.838686         2.298923
 H        -3.872720         1.356623         1.237671
 H        -3.309026         3.082339         1.501384
 H        -0.415108         2.647984         0.617974
 H        -0.767882         2.555728         3.617605
 H        -1.120107         0.820496         3.896958
 H         1.274229         1.763353         2.055091
 H         0.875776         0.093916         2.738898
