19
Iteration:  3597charge 0 multiplicity 1
 O         0.540446        -0.096156         0.021764
 C        -0.304928         0.515122         0.992139
 C        -1.696138        -0.041112         1.528348
 C        -1.803582         1.494992         1.962823
 C        -3.036378         2.101932         1.235995
 O        -2.227572         1.970961         0.013675
 C        -1.029387         1.847666         0.770581
 C        -0.890508         1.538597         3.118739
 C         0.379784         1.053619         2.333271
 H         0.634898        -1.023256         0.336692
 H        -2.422992        -0.347465         0.775477
 H        -1.568068        -0.831754         2.263277
 H        -3.812246         1.421299         1.293704
 H        -3.337747         3.135236         1.493252
 H        -0.312432         2.705009         0.631410
 H        -0.792750         2.555697         3.628537
 H        -1.121017         0.820243         3.873796
 H         1.221595         1.772475         2.029290
 H         0.913838         0.066799         2.711702
