19
Iteration:   863
 O         0.581673        -0.200368         0.051840
 C        -0.315268         0.525464         1.021837
 C        -1.496511        -0.122808         1.580912
 C        -1.825291         1.505304         1.964217
 C        -3.024174         2.124886         1.317179
 O        -2.447321         1.784386         0.000530
 C        -1.104102         1.765288         0.632989
 C        -0.796772         1.764965         3.106009
 C         0.386705         1.113041         2.312919
 H         1.191707         0.477601        -0.329037
 H        -2.196160        -0.398561         0.765279
 H        -1.445517        -1.054330         2.263533
 H        -4.023743         1.689068         1.567241
 H        -3.144645         3.260763         1.444403
 H        -0.699600         2.791739         0.554653
 H        -0.681548         2.823326         3.365071
 H        -1.153290         1.222518         4.067519
 H         1.232453         1.875692         2.203314
 H         0.705743         0.232218         2.935940
