19
Iteration:  2106
 O         0.663913        -0.171038         0.142043
 C        -0.270006         0.538433         0.944027
 C        -1.572102        -0.140025         1.560265
 C        -1.877714         1.372402         1.930032
 C        -3.085284         2.076529         1.315359
 O        -2.377828         1.978012         0.015530
 C        -1.070777         1.838421         0.691414
 C        -0.836498         1.789687         3.049959
 C         0.383775         0.983766         2.319242
 H         0.180200        -0.365656        -0.621541
 H        -2.337833        -0.438071         0.823560
 H        -1.415677        -0.855959         2.423735
 H        -3.984571         1.498854         1.486620
 H        -3.058990         3.121478         1.633324
 H        -0.583186         2.896232         0.524361
 H        -0.748132         2.875458         2.993260
 H        -0.902704         1.430281         4.145803
 H         1.417170         1.659055         2.236725
 H         0.636062         0.144202         3.020749
