19
Iteration:  3701charge 0 multiplicity 1
 O         0.507374        -0.139672         0.086379
 C        -0.296615         0.557158         1.021158
 C        -1.634632        -0.029824         1.585528
 C        -1.856391         1.477286         2.011715
 C        -3.042355         2.103112         1.138607
 O        -2.240072         2.014686        -0.013218
 C        -1.028650         1.842671         0.770284
 C        -0.901685         1.582109         3.128935
 C         0.448033         0.873377         2.334613
 H         0.191011         0.058125        -0.789828
 H        -2.297429        -0.388664         0.747396
 H        -1.543700        -0.880623         2.295954
 H        -3.949441         1.388060         1.134035
 H        -3.378453         3.175038         1.300454
 H        -0.262701         2.834294         0.751123
 H        -0.490911         2.561101         3.288437
 H        -1.036511         1.136404         4.142980
 H         1.159695         1.656090         2.186580
 H         0.914582        -0.018525         2.798023
