19
Iteration:  2267charge 0 multiplicity 1
 O         0.589847        -0.138312         0.089434
 C        -0.284833         0.544875         0.966467
 C        -1.591425         0.007567         1.512891
 C        -1.827235         1.522608         1.928336
 C        -2.967128         2.126305         1.344428
 O        -2.414105         1.741980         0.082349
 C        -0.994011         1.819656         0.652712
 C        -0.875318         1.600588         3.087779
 C         0.380162         1.056744         2.343717
 H         0.152988        -0.217632        -0.767755
 H        -2.111275        -0.305343         0.652774
 H        -1.739921        -0.664699         2.301709
 H        -4.020923         1.734671         1.322875
 H        -2.915738         3.319887         1.384191
 H        -0.544582         2.916151         0.520167
 H        -0.698756         2.614404         3.486903
 H        -1.028961         0.994816         3.963302
 H         0.905790         1.874309         2.243733
 H         0.943585         0.315328         3.022943
