19
Iteration:  4656
 O         0.643127        -0.100381         0.097229
 C        -0.296736         0.479711         1.032498
 C        -1.671782        -0.120950         1.406051
 C        -1.915248         1.417531         1.921620
 C        -2.956349         2.285687         1.323403
 O        -2.280080         2.173767        -0.008700
 C        -0.982478         1.769954         0.707650
 C        -0.956958         1.509692         3.074673
 C         0.373606         0.848007         2.436921
 H         0.182678        -0.927850        -0.034545
 H        -2.114360        -0.324174         0.480350
 H        -1.727143        -0.920944         2.048461
 H        -3.984987         1.811043         1.263374
 H        -2.963604         3.321461         1.775142
 H        -0.398765         2.726507         0.653386
 H        -0.761188         2.552830         3.214453
 H        -1.261377         1.105081         4.073037
 H         1.128437         1.582387         2.294819
 H         0.802583         0.023041         2.891631
