19
Iteration:  4448
 O         0.554932        -0.023756         0.008535
 C        -0.303469         0.434461         0.997170
 C        -1.765208        -0.060227         1.485926
 C        -1.929578         1.360868         2.037824
 C        -2.936337         2.228501         1.210475
 O        -2.205148         2.052113        -0.037906
 C        -0.963369         1.825090         0.793723
 C        -0.915446         1.526037         3.166317
 C         0.370108         0.907479         2.338325
 H         0.945323        -0.893232         0.341836
 H        -2.311483        -0.275541         0.552893
 H        -1.837324        -0.753882         2.289779
 H        -3.977060         1.813772         1.172798
 H        -2.820020         3.253041         1.522766
 H        -0.365109         2.816457         0.650526
 H        -0.733780         2.544694         3.329674
 H        -1.189291         1.028580         4.098688
 H         1.120860         1.622858         2.118366
 H         0.725816         0.119217         2.941586
