19
Iteration:   979
 O         0.505323        -0.051892        -0.062036
 C        -0.251017         0.558277         1.038868
 C        -1.520313        -0.060828         1.609266
 C        -1.819127         1.431718         2.027966
 C        -2.962950         2.063160         1.292444
 O        -2.396399         1.682490        -0.027184
 C        -1.158460         1.762227         0.654436
 C        -0.832128         1.798349         3.093855
 C         0.377487         1.164817         2.399582
 H         0.668431        -1.026309         0.120922
 H        -2.186345        -0.434186         0.786075
 H        -1.423472        -0.890281         2.277979
 H        -4.061734         1.850430         1.494422
 H        -2.906823         3.135117         1.433101
 H        -0.699878         2.763602         0.515996
 H        -0.532549         2.892229         3.136476
 H        -1.000457         1.482948         4.088336
 H         1.356213         1.663593         2.159951
 H         0.869515         0.248030         2.923035
