19
Iteration:   746
 O         0.629455        -0.086550         0.141652
 C        -0.331052         0.495086         0.927083
 C        -1.664593        -0.020145         1.650357
 C        -1.879849         1.474107         2.020552
 C        -3.123636         2.100805         1.239165
 O        -2.395080         1.883344        -0.034493
 C        -1.106007         1.787085         0.686128
 C        -0.758334         1.622001         3.040537
 C         0.484700         1.072573         2.215767
 H         1.382100        -0.178836         0.693845
 H        -2.341857        -0.617250         1.055259
 H        -1.467277        -0.796255         2.449574
 H        -4.070742         1.528211         1.327115
 H        -3.220513         3.190611         1.397998
 H        -0.397138         2.741157         0.817410
 H        -0.585250         2.642270         3.359381
 H        -0.872404         0.994581         3.916075
 H         1.345278         1.671210         1.973025
 H         0.848716         0.090243         2.843093
