19
Iteration:  2578
 O         0.534079        -0.103954         0.182353
 C        -0.308993         0.600919         0.944160
 C        -1.612792        -0.033187         1.584279
 C        -1.831400         1.448229         1.956844
 C        -3.087307         1.920587         1.222681
 O        -2.317866         2.026376        -0.005947
 C        -1.013288         1.910542         0.717706
 C        -0.728804         1.728075         3.031331
 C         0.390093         0.852002         2.355961
 H         0.006600        -0.560259        -0.574824
 H        -2.425378        -0.343922         0.884290
 H        -1.330710        -0.771097         2.414415
 H        -3.782771         1.128973         1.149107
 H        -3.561312         2.926690         1.629598
 H        -0.603887         2.910501         0.823763
 H        -0.603736         2.838506         2.942418
 H        -0.928290         1.270455         4.038297
 H         1.401079         1.340807         2.229550
 H         0.517885        -0.225462         2.799296
