19
Iteration:  3584
 O         0.501584        -0.065058        -0.001336
 C        -0.265649         0.533884         0.987936
 C        -1.638799         0.025106         1.539750
 C        -1.798680         1.472780         1.980723
 C        -2.979831         1.997260         1.275735
 O        -2.312454         1.968334        -0.032179
 C        -0.947710         1.866834         0.616806
 C        -0.903947         1.588667         3.220963
 C         0.388842         0.929082         2.381840
 H         0.436364        -1.031143         0.044154
 H        -2.312537        -0.133956         0.651004
 H        -1.874591        -0.663103         2.383379
 H        -3.974391         1.473798         1.181960
 H        -3.219956         3.009148         1.484492
 H        -0.481314         2.772373         0.583348
 H        -0.678836         2.637434         3.572657
 H        -1.300980         0.994600         4.038497
 H         1.201473         1.806406         2.371088
 H         0.767456         0.115070         3.083994
