19
Iteration:  3493
 O         0.608728        -0.311594         0.197632
 C        -0.219840         0.520181         0.959646
 C        -1.583363        -0.023574         1.509856
 C        -1.857704         1.435180         1.980669
 C        -3.046165         2.140761         1.317747
 O        -2.371144         2.046147        -0.029179
 C        -1.047733         1.911710         0.665662
 C        -0.906219         1.481022         3.080925
 C         0.385087         1.084494         2.295724
 H         0.806306        -0.034354        -0.764356
 H        -2.305848        -0.442950         0.811506
 H        -1.482255        -0.661074         2.446401
 H        -4.099730         1.673032         1.435717
 H        -3.157248         3.148537         1.629412
 H        -0.450281         2.727026         0.657899
 H        -0.721086         2.458940         3.415358
 H        -1.280232         0.799510         3.913231
 H         1.022862         2.086805         2.278991
 H         1.012115         0.280835         2.670568
