19
Iteration:  4084charge 0 multiplicity 1
 O         0.447987        -0.244061         0.095438
 C        -0.236014         0.535584         1.029517
 C        -1.606345         0.019103         1.306147
 C        -1.806520         1.488061         1.970302
 C        -3.036619         2.124762         1.254950
 O        -2.282298         2.080476         0.001089
 C        -0.915985         1.898201         0.688000
 C        -0.954305         1.491373         3.242397
 C         0.358175         0.942935         2.361698
 H         1.303957        -0.553882         0.403441
 H        -2.166413        -0.036037         0.343618
 H        -1.760657        -0.807538         1.991257
 H        -3.856506         1.504657         1.385961
 H        -3.384901         3.209373         1.566222
 H        -0.243094         2.720520         0.359402
 H        -0.825895         2.447170         3.911379
 H        -1.405946         0.651452         3.778117
 H         1.197500         1.833116         2.375354
 H         0.694468         0.043486         3.011883
