19
Iteration:  4209
 O         0.596021        -0.210611         0.114215
 C        -0.265274         0.478935         0.996866
 C        -1.768962         0.081795         1.416237
 C        -1.828086         1.493078         1.980268
 C        -3.008031         2.150703         1.226813
 O        -2.227208         2.090166        -0.029758
 C        -1.012953         1.919508         0.720516
 C        -0.922384         1.417804         3.169725
 C         0.413067         0.959101         2.386238
 H         0.394665        -1.184778         0.024366
 H        -2.449309         0.004102         0.565110
 H        -1.999002        -0.779958         2.105906
 H        -3.874839         1.567531         1.182719
 H        -3.307079         3.234093         1.447739
 H        -0.438000         2.956288         0.731751
 H        -0.730018         2.177178         3.904805
 H        -1.107090         0.487948         3.776985
 H         1.131594         1.685033         2.204121
 H         1.031094         0.169321         2.854570
