19
Iteration:  1703
 O         0.526912        -0.094587         0.046381
 C        -0.302854         0.540200         1.031271
 C        -1.589797        -0.012831         1.674657
 C        -1.836468         1.462984         1.994845
 C        -3.063588         1.999346         1.212668
 O        -2.250948         1.883447        -0.029648
 C        -1.043988         1.781726         0.708272
 C        -0.820291         1.654961         3.081586
 C         0.404244         1.093248         2.308135
 H        -0.069503        -0.558094        -0.546327
 H        -2.290841        -0.364189         0.881258
 H        -1.435835        -0.720017         2.535397
 H        -4.020953         1.672160         1.159231
 H        -3.417350         3.063934         1.661856
 H        -0.353604         2.583541         0.579692
 H        -0.907304         2.758020         3.276190
 H        -0.995886         1.086159         3.998364
 H         1.139411         1.757661         1.982900
 H         0.810877         0.254270         2.976895
