19
Iteration:  2974charge 0 multiplicity 1
 O         0.555395        -0.150908         0.067603
 C        -0.299862         0.550777         0.976953
 C        -1.550487        -0.002936         1.573446
 C        -1.791503         1.513012         1.961850
 C        -3.091527         1.994754         1.241086
 O        -2.304143         1.979158        -0.013812
 C        -1.053734         1.821611         0.737803
 C        -0.834141         1.669144         3.095758
 C         0.399639         0.953637         2.368981
 H        -0.146026        -0.568782        -0.541687
 H        -2.291357        -0.280342         0.797398
 H        -1.440630        -0.752307         2.386992
 H        -3.984239         1.224985         1.358116
 H        -3.400527         3.068011         1.379572
 H        -0.451936         2.821234         0.860319
 H        -0.638408         2.712617         3.328102
 H        -1.079918         1.225687         4.012522
 H         1.255348         1.580275         2.104652
 H         0.658011         0.110782         2.893256
