19
Iteration:  4633
 O         0.617203        -0.256951         0.100056
 C        -0.311110         0.477605         0.964563
 C        -1.674354        -0.037350         1.402924
 C        -1.755607         1.456551         1.918202
 C        -2.999848         2.064432         1.299349
 O        -2.279973         2.263583         0.012915
 C        -0.958593         1.961181         0.640091
 C        -0.923185         1.528489         3.173547
 C         0.297425         0.893548         2.423533
 H         0.372465        -1.194666         0.340674
 H        -2.382787        -0.111047         0.636072
 H        -1.722637        -0.789768         2.101132
 H        -3.930535         1.411163         1.136620
 H        -3.255062         3.087885         1.699814
 H        -0.402056         2.908918         0.648342
 H        -0.951830         2.495239         3.687189
 H        -1.201190         0.756009         3.928241
 H         1.105975         1.564851         2.188340
 H         0.718438         0.035534         2.866220
