19
Iteration:  2894charge 0 multiplicity 1
 O         0.637952        -0.116362         0.102516
 C        -0.293843         0.492661         0.961847
 C        -1.685811        -0.080927         1.615143
 C        -1.814625         1.462112         1.950773
 C        -2.957290         2.157668         1.256196
 O        -2.351247         1.931735        -0.040750
 C        -1.091181         1.774802         0.695270
 C        -0.905649         1.592674         3.157449
 C         0.438224         1.063054         2.325179
 H         0.077105        -0.202209        -0.747062
 H        -2.371649        -0.379835         0.826020
 H        -1.566331        -0.839382         2.352001
 H        -3.950612         1.528581         1.418893
 H        -3.122019         3.262316         1.630343
 H        -0.445826         2.787008         0.495373
 H        -0.621436         2.600348         3.512502
 H        -1.117571         0.874976         3.982024
 H         0.984572         1.921380         2.143087
 H         1.106630         0.245674         2.768205
