19
Iteration:  4827
 O         0.506147        -0.113091         0.072342
 C        -0.249265         0.538031         1.040488
 C        -1.659474         0.057094         1.419679
 C        -1.904019         1.478661         2.015086
 C        -3.023566         2.194066         1.190626
 O        -2.271812         1.994182        -0.078218
 C        -1.012466         1.915441         0.773487
 C        -0.836047         1.471703         3.125525
 C         0.395917         0.811810         2.417202
 H         0.729151        -1.021978         0.399599
 H        -2.262943        -0.122819         0.528846
 H        -1.706547        -0.879482         2.149291
 H        -4.023116         1.720833         1.118783
 H        -3.193031         3.316070         1.455747
 H        -0.382007         2.925069         0.789274
 H        -0.539065         2.520204         3.458670
 H        -1.085462         1.003107         4.066911
 H         1.356065         1.419935         2.373622
 H         0.657853        -0.182019         2.873231
