19
Iteration:  1820
 O         0.540453        -0.182536         0.104128
 C        -0.261795         0.607725         1.008493
 C        -1.568916        -0.042841         1.563654
 C        -1.826523         1.490925         1.961904
 C        -3.051437         2.000194         1.221434
 O        -2.321930         1.883945        -0.051548
 C        -1.086786         1.874370         0.759990
 C        -0.818403         1.610109         3.152721
 C         0.429356         1.104956         2.317038
 H        -0.157776        -0.728698        -0.410366
 H        -2.326491        -0.382822         0.825510
 H        -1.349141        -0.788126         2.378385
 H        -4.124719         1.552957         1.150260
 H        -3.287619         3.009574         1.430499
 H        -0.620362         2.904259         0.618611
 H        -0.606855         2.662896         3.399246
 H        -1.005425         1.029815         4.064480
 H         1.111378         1.926352         2.038338
 H         0.924682         0.236301         2.753690
