19
Iteration:   709charge 0 multiplicity 1
 O         0.413465        -0.116857         0.016984
 C        -0.304830         0.595337         1.005404
 C        -1.555144        -0.024072         1.501573
 C        -1.758372         1.457699         1.949898
 C        -2.985576         2.032591         1.324275
 O        -2.421032         1.799425        -0.054081
 C        -1.002092         1.766609         0.594089
 C        -0.839701         1.660069         3.162811
 C         0.415716         1.111041         2.480931
 H         1.308398        -0.219525         0.330397
 H        -2.294815        -0.209904         0.670577
 H        -1.263431        -0.710724         2.311142
 H        -3.952275         1.557227         1.414048
 H        -3.224389         3.084727         1.381165
 H        -0.561666         2.707641         0.357446
 H        -0.733412         2.749329         3.403507
 H        -1.077260         1.196186         4.150734
 H         1.225375         1.895281         2.231401
 H         0.878827         0.221410         3.019570
