19
Iteration:   881
 O         0.494238        -0.188980         0.143151
 C        -0.257328         0.615628         0.993997
 C        -1.475161        -0.096410         1.503934
 C        -1.838862         1.343206         1.959295
 C        -3.024331         2.063508         1.357161
 O        -2.498291         1.855199         0.015774
 C        -1.114869         1.825098         0.601116
 C        -0.817415         1.759302         3.010128
 C         0.441565         1.084010         2.367530
 H         1.479997        -0.134852         0.149865
 H        -2.215743        -0.566766         0.835428
 H        -1.319928        -0.637030         2.358063
 H        -4.077192         1.739884         1.355046
 H        -2.865392         3.077131         1.722522
 H        -0.429834         2.729992         0.443443
 H        -0.835979         2.882084         2.879810
 H        -1.059526         1.496669         4.051025
 H         1.329474         1.719463         2.217663
 H         0.915813         0.283372         2.836497
