19
Iteration:  4240
 O         0.452717        -0.154452         0.054418
 C        -0.301779         0.506769         0.995658
 C        -1.587044        -0.121749         1.426738
 C        -1.834257         1.342512         1.999615
 C        -2.924804         2.177091         1.255396
 O        -2.171343         2.183763        -0.026604
 C        -0.967200         1.902374         0.696116
 C        -1.036978         1.557877         3.170395
 C         0.327703         0.919298         2.381863
 H         0.454385        -1.093726         0.173786
 H        -2.265325        -0.424065         0.634444
 H        -1.489449        -0.952148         2.187833
 H        -3.853027         1.756768         1.145046
 H        -2.949885         3.140294         1.640009
 H        -0.458452         2.770604         0.881123
 H        -0.819773         2.591717         3.503946
 H        -1.162261         0.877652         4.030826
 H         0.964683         1.832516         2.222471
 H         0.805624         0.022854         2.930716
