19
Iteration:  2270charge 0 multiplicity 1
 O         0.581742        -0.139166         0.069921
 C        -0.288523         0.554923         0.978939
 C        -1.577908        -0.009731         1.525028
 C        -1.838238         1.534235         1.936458
 C        -2.964181         2.141397         1.305486
 O        -2.397569         1.731264         0.081081
 C        -1.015714         1.827530         0.672338
 C        -0.864115         1.606765         3.092648
 C         0.360131         1.056857         2.350810
 H         0.125802        -0.195581        -0.850029
 H        -2.122816        -0.307446         0.626018
 H        -1.777044        -0.748620         2.330283
 H        -3.904909         1.706540         1.368707
 H        -2.798727         3.237453         1.447907
 H        -0.571206         2.753189         0.556539
 H        -0.734863         2.584646         3.576501
 H        -1.136455         0.995434         3.994633
 H         1.081273         1.971362         2.202472
 H         0.990045         0.367780         2.905271
