19
Iteration:  3104charge 0 multiplicity 1
 O         0.581079        -0.124008         0.061243
 C        -0.320413         0.456878         1.017032
 C        -1.645354        -0.140578         1.565846
 C        -1.782174         1.454831         1.972558
 C        -3.019375         2.043142         1.290709
 O        -2.311303         2.008833        -0.035801
 C        -1.037853         1.833017         0.701315
 C        -0.854773         1.706369         3.108763
 C         0.390130         1.065457         2.354498
 H        -0.131654        -0.430198        -0.566514
 H        -2.254064        -0.538424         0.762996
 H        -1.493765        -0.879940         2.316520
 H        -3.923160         1.392331         1.239249
 H        -3.291472         3.067200         1.586606
 H        -0.406541         2.737585         0.622817
 H        -0.668521         2.805734         3.328232
 H        -1.116628         1.163540         4.023502
 H         1.221608         1.733897         2.083574
 H         0.824818         0.156217         2.978726
