19
Iteration:  1794
 O         0.644923        -0.127187         0.163159
 C        -0.308220         0.552369         1.023348
 C        -1.623380        -0.102760         1.642270
 C        -1.871022         1.418580         1.938802
 C        -3.008148         2.093225         1.258632
 O        -2.349124         1.968358        -0.019063
 C        -1.095318         1.763116         0.669953
 C        -0.847496         1.565397         3.107174
 C         0.442923         1.174436         2.247719
 H         0.160467        -0.767561        -0.480055
 H        -2.281160        -0.486681         0.879595
 H        -1.538358        -0.838013         2.392456
 H        -4.016002         1.678244         1.263491
 H        -3.272494         3.257644         1.490436
 H        -0.495087         2.631773         0.314338
 H        -0.692727         2.578781         3.544295
 H        -0.943988         0.898010         4.046801
 H         0.960268         2.047490         1.864366
 H         0.953412         0.362023         2.640099
