19
Iteration:  1328
 O         0.546459        -0.143193         0.107388
 C        -0.205620         0.597034         0.974588
 C        -1.587810        -0.062118         1.561734
 C        -1.747717         1.459355         1.938531
 C        -3.013462         2.097831         1.331640
 O        -2.419778         1.801867        -0.063119
 C        -1.130802         1.829213         0.608894
 C        -0.847846         1.664551         3.137654
 C         0.422347         1.156169         2.351343
 H         0.284812        -1.101983         0.109986
 H        -2.274404        -0.390874         0.760040
 H        -1.443301        -0.862243         2.371273
 H        -4.000652         1.631241         1.388207
 H        -3.183529         3.150190         1.483340
 H        -0.628767         2.822051         0.348107
 H        -0.731273         2.704858         3.656618
 H        -1.069546         0.936031         3.906671
 H         1.232033         1.813973         2.426963
 H         0.953180         0.246534         2.892788
