19
Iteration:  2396
 O         0.694468        -0.074739         0.145999
 C        -0.405292         0.456272         0.931763
 C        -1.673528        -0.060160         1.600438
 C        -1.821292         1.424337         2.018336
 C        -2.936461         2.224938         1.286884
 O        -2.377547         1.879704        -0.023019
 C        -1.092085         1.757598         0.626455
 C        -0.819503         1.561043         3.228222
 C         0.373505         1.115674         2.257751
 H         0.476526        -0.392331        -0.731503
 H        -2.348710        -0.311318         0.774788
 H        -1.598986        -0.828962         2.396431
 H        -4.053610         1.829497         1.266272
 H        -3.099873         3.264862         1.426021
 H        -0.518932         2.564415         0.431594
 H        -0.749721         2.580980         3.581727
 H        -1.076749         0.752719         3.903387
 H         1.073472         1.978093         1.839868
 H         1.158205         0.315685         2.664213
