19
Iteration:   946charge 0 multiplicity 1
 O         0.491804        -0.109323         0.034507
 C        -0.298373         0.514031         1.064604
 C        -1.537984        -0.042881         1.658145
 C        -1.804239         1.484766         1.950497
 C        -3.048355         1.972129         1.322308
 O        -2.365403         1.820695        -0.065567
 C        -1.103119         1.844488         0.676236
 C        -0.811532         1.691462         3.058353
 C         0.451793         1.188808         2.270650
 H         0.802332        -0.980849         0.455492
 H        -2.297983        -0.453747         0.958003
 H        -1.404552        -0.552347         2.561218
 H        -3.919617         1.324245         1.385103
 H        -3.187484         3.018462         1.519321
 H        -0.788134         2.873592         0.518088
 H        -0.656643         2.730814         3.468682
 H        -1.078078         1.013354         3.822164
 H         1.241041         1.889511         1.907305
 H         0.919475         0.313560         2.795528
