19
Iteration:  3116
 O         0.452745        -0.102900         0.048115
 C        -0.312717         0.560198         0.975148
 C        -1.471938        -0.182150         1.553432
 C        -1.819678         1.459212         1.971727
 C        -2.978173         2.103966         1.248539
 O        -2.326242         1.936063        -0.039954
 C        -1.000912         1.814654         0.699068
 C        -0.892066         1.646170         3.161925
 C         0.378266         1.038590         2.403210
 H         0.057508        -0.697388        -0.639642
 H        -2.366964        -0.295338         1.005811
 H        -1.373287        -0.879832         2.354958
 H        -4.062505         1.658633         1.228835
 H        -3.027699         3.167479         1.593341
 H        -0.260334         2.664010         0.428458
 H        -0.727928         2.754732         3.316058
 H        -1.260932         1.271395         4.088559
 H         1.055061         1.913836         2.264921
 H         0.945277         0.213962         2.980972
