19
Iteration:  1705charge 0 multiplicity 1
 O         0.532707        -0.080096         0.057237
 C        -0.305032         0.550541         1.006679
 C        -1.598914        -0.012173         1.688578
 C        -1.822632         1.475919         1.972996
 C        -3.074861         2.005756         1.226861
 O        -2.251577         1.882033        -0.020815
 C        -1.029539         1.760048         0.704160
 C        -0.829417         1.666852         3.076599
 C         0.397032         1.060717         2.329076
 H        -0.061780        -0.607288        -0.594736
 H        -2.231730        -0.341006         0.848662
 H        -1.469369        -0.671593         2.502386
 H        -4.061101         1.566261         1.192899
 H        -3.497024         3.055584         1.611500
 H        -0.362954         2.652765         0.568136
 H        -0.851287         2.782467         3.241358
 H        -0.908532         1.033960         4.031264
 H         1.157491         1.676435         1.922696
 H         0.789841         0.320957         2.946039
