19
Iteration:  1239charge 0 multiplicity 1
 O         0.566359        -0.261534         0.120335
 C        -0.209332         0.571574         0.946720
 C        -1.548650        -0.042211         1.491060
 C        -1.794067         1.461516         1.967662
 C        -3.024526         2.038740         1.334113
 O        -2.496365         1.808842        -0.026526
 C        -1.087516         1.853391         0.676356
 C        -0.806919         1.798922         3.064312
 C         0.348359         1.069062         2.364016
 H         1.332901         0.354559        -0.167795
 H        -2.275536        -0.317254         0.704163
 H        -1.372610        -0.860818         2.282417
 H        -3.968341         1.622522         1.480123
 H        -3.135680         3.007556         1.812896
 H        -0.630531         2.870552         0.384093
 H        -0.616974         2.921356         3.338962
 H        -1.110372         1.173296         3.926441
 H         1.307092         1.642875         2.439420
 H         0.648311         0.196154         3.073585
