19
Iteration:  2774
 O         0.579514        -0.207062         0.179128
 C        -0.210888         0.560093         1.046611
 C        -1.618941        -0.059688         1.511449
 C        -1.805293         1.474065         1.929229
 C        -3.012220         2.242763         1.301642
 O        -2.403530         1.836927        -0.023745
 C        -1.086085         1.882025         0.643272
 C        -0.901882         1.499962         3.173517
 C         0.445469         1.054225         2.284203
 H         0.536269         0.025909        -0.769183
 H        -2.107775        -0.473977         0.643336
 H        -1.664170        -0.880729         2.248257
 H        -4.197059         1.995623         1.216136
 H        -3.102761         3.268485         1.622016
 H        -0.564650         2.899365         0.493273
 H        -0.845634         2.533370         3.523388
 H        -1.068428         0.865882         4.047900
 H         1.067521         1.858741         1.939872
 H         1.243163         0.370051         2.787567
