19
Iteration:  1558
 O         0.520997        -0.182333         0.124590
 C        -0.344472         0.566506         1.012212
 C        -1.643484         0.021734         1.694262
 C        -1.841675         1.457942         2.015606
 C        -3.041415         1.991408         1.230831
 O        -2.267775         1.898446        -0.119442
 C        -1.065710         1.857011         0.679141
 C        -0.772930         1.580393         3.121968
 C         0.455617         1.116842         2.301990
 H         0.114931        -0.092005        -0.761123
 H        -2.251208        -0.533745         0.925590
 H        -1.550501        -0.719903         2.539231
 H        -3.974659         1.474712         1.086332
 H        -3.207727         3.159584         1.340248
 H        -0.537659         2.771603         0.473744
 H        -0.819519         2.516978         3.726162
 H        -1.049589         0.915895         3.929218
 H         0.988709         1.992418         2.086242
 H         1.123060         0.342262         2.812518
