19
Iteration:   553
 O         0.635389        -0.169034         0.050612
 C        -0.421133         0.502025         0.930476
 C        -1.659437        -0.062589         1.684667
 C        -1.834538         1.511011         2.028055
 C        -3.129169         1.897428         1.233830
 O        -2.291287         1.980124         0.010989
 C        -1.040354         1.837528         0.680336
 C        -0.796609         1.775743         3.138967
 C         0.415175         0.980597         2.331336
 H         1.016727         0.584105        -0.418545
 H        -2.371863        -0.546594         1.001589
 H        -1.447963        -0.789770         2.449123
 H        -3.833857         1.097922         0.987708
 H        -3.686001         2.788316         1.358681
 H        -0.355567         2.724276         0.434537
 H        -0.579338         2.876421         3.114016
 H        -1.035035         1.405704         4.161058
 H         1.205968         1.781520         1.958891
 H         1.006317         0.186843         2.552761
