19
Iteration:  4305charge 0 multiplicity 1
 O         0.553491        -0.073039         0.071588
 C        -0.281319         0.592958         0.971529
 C        -1.804978         0.076106         1.435039
 C        -1.837661         1.462630         1.948864
 C        -2.944277         2.167778         1.291173
 O        -2.247157         1.954638        -0.014839
 C        -0.938083         1.921437         0.637358
 C        -0.830857         1.452037         3.179252
 C         0.269401         0.785497         2.382138
 H         1.196906        -0.581903         0.606518
 H        -2.515612        -0.225773         0.673771
 H        -1.753895        -0.704632         2.227290
 H        -4.026212         1.635726         1.214113
 H        -3.076696         3.248720         1.372168
 H        -0.411133         2.832153         0.721784
 H        -0.673285         2.524678         3.394616
 H        -1.140628         0.948609         4.108824
 H         1.280023         1.353523         2.584484
 H         0.468199        -0.240597         2.945741
