19
Iteration:  1730charge 0 multiplicity 1
 O         0.667249        -0.136235         0.140987
 C        -0.316979         0.569744         1.000451
 C        -1.627407        -0.051564         1.554028
 C        -1.769930         1.568176         1.999283
 C        -3.033492         1.950648         1.243267
 O        -2.432594         1.878898        -0.062232
 C        -1.124455         1.894705         0.672928
 C        -0.737095         1.736577         3.110836
 C         0.393903         0.909227         2.376431
 H         0.103265        -0.387315        -0.626678
 H        -2.405612        -0.269973         0.841483
 H        -1.429156        -0.751438         2.346550
 H        -4.105695         1.509716         1.308428
 H        -3.364639         2.932181         1.621928
 H        -0.495081         2.838119         0.425138
 H        -0.545276         2.813044         3.083898
 H        -1.144203         1.382274         4.141190
 H         1.375410         1.490580         2.145583
 H         0.681360         0.019847         2.879416
