19
Iteration:  2194charge 0 multiplicity 1
 O         0.552515        -0.211732         0.116682
 C        -0.246887         0.441357         0.997922
 C        -1.526881        -0.091214         1.560111
 C        -1.821676         1.353770         1.955342
 C        -3.038441         1.965898         1.270244
 O        -2.340496         2.096216         0.009416
 C        -1.066838         1.829933         0.699992
 C        -0.812862         1.764544         3.087192
 C         0.351883         1.116424         2.312937
 H        -0.041603        -0.419229        -0.587717
 H        -2.362892        -0.261143         0.847607
 H        -1.485445        -0.994591         2.252992
 H        -3.856147         1.275829         1.256361
 H        -3.361724         2.903460         1.648904
 H        -0.517857         2.729786         0.698288
 H        -0.867851         2.854005         3.135240
 H        -1.000640         1.335484         4.105083
 H         1.183051         1.917007         1.958416
 H         0.700278         0.330357         2.975918
