19
Iteration:  2246charge 0 multiplicity 1
 O         0.688991        -0.163766         0.200784
 C        -0.306834         0.580592         0.967335
 C        -1.599065        -0.074231         1.536545
 C        -1.835990         1.506566         1.938350
 C        -3.055146         2.074477         1.341569
 O        -2.444303         1.937501        -0.039410
 C        -1.130657         1.837312         0.620729
 C        -0.771440         1.650180         3.120027
 C         0.431829         0.998129         2.309033
 H         0.222918        -0.467301        -0.585432
 H        -2.324992        -0.324913         0.800404
 H        -1.558362        -0.848320         2.267615
 H        -3.922645         1.436336         1.470185
 H        -3.104436         3.172964         1.662174
 H        -0.523123         2.764852         0.390824
 H        -0.664076         2.672812         3.492329
 H        -1.125708         1.136720         4.006885
 H         1.266997         1.591173         2.131416
 H         0.862393         0.002961         2.692340
