19
Iteration:  1952charge 0 multiplicity 1
 O         0.565520        -0.208666         0.181661
 C        -0.266405         0.592775         1.009096
 C        -1.532433        -0.030535         1.553461
 C        -1.845326         1.491175         1.987386
 C        -3.113358         1.891558         1.306040
 O        -2.368090         2.001369        -0.058470
 C        -1.062345         1.896971         0.708698
 C        -0.779801         1.683684         3.093423
 C         0.454730         1.012140         2.257268
 H        -0.004096        -0.658887        -0.543708
 H        -2.269049        -0.407690         0.799160
 H        -1.563179        -0.725613         2.399640
 H        -4.047726         1.223516         1.111135
 H        -3.376398         3.022649         1.310865
 H        -0.552717         2.912617         0.509959
 H        -0.728637         2.668734         3.552896
 H        -1.179825         1.101643         3.951196
 H         1.172413         1.846548         2.163154
 H         0.970219         0.272826         2.706007
