19
Iteration:  3835charge 0 multiplicity 1
 O         0.485284        -0.184212         0.060622
 C        -0.268407         0.546987         1.032578
 C        -1.553752        -0.088955         1.490909
 C        -1.880281         1.364404         2.004582
 C        -2.978908         2.162894         1.208779
 O        -2.186359         2.056787        -0.051087
 C        -1.020591         1.885145         0.808770
 C        -0.936921         1.563993         3.139189
 C         0.364870         0.970653         2.360244
 H        -0.188045        -0.303160        -0.604594
 H        -2.204179        -0.287787         0.617832
 H        -1.618653        -0.944965         2.269564
 H        -4.073647         1.780826         0.951532
 H        -3.152631         3.175105         1.511160
 H        -0.392917         2.696026         0.886454
 H        -0.741813         2.668879         3.356202
 H        -1.158984         1.064127         4.076122
 H         1.279134         1.686942         2.205106
 H         0.599452         0.033154         2.949751
