19
Iteration:  1346charge 0 multiplicity 1
 O         0.668243        -0.131818         0.140094
 C        -0.328967         0.557504         0.960018
 C        -1.553998         0.033885         1.531491
 C        -1.806169         1.441993         1.988468
 C        -3.080918         2.080744         1.268480
 O        -2.491870         1.847533         0.006979
 C        -1.045665         1.844869         0.561744
 C        -0.810743         1.640663         3.103196
 C         0.393575         1.020080         2.346613
 H         0.824765        -1.000881         0.574984
 H        -2.265025        -0.358655         0.861033
 H        -1.472358        -0.654233         2.358457
 H        -3.953724         1.546108         1.648449
 H        -2.983057         3.183234         1.550447
 H        -0.558048         2.760815         0.303284
 H        -0.684434         2.684946         3.295410
 H        -1.107918         1.289731         4.113799
 H         1.109514         1.836294         1.932400
 H         0.893510         0.214311         2.794249
