19
Iteration:  1149
 O         0.502795        -0.132583         0.013677
 C        -0.224052         0.619226         1.014614
 C        -1.498667        -0.084709         1.553074
 C        -1.852834         1.450641         1.971947
 C        -3.021160         1.994897         1.305924
 O        -2.384310         1.827391        -0.026682
 C        -1.118805         1.827984         0.722257
 C        -0.818821         1.851647         3.079979
 C         0.439872         1.011801         2.338106
 H         0.746994        -1.061029         0.409270
 H        -2.214562        -0.250188         0.681253
 H        -1.538071        -0.792628         2.382656
 H        -3.876844         1.364470         1.405881
 H        -3.457798         3.005324         1.569391
 H        -0.639635         2.894602         0.501127
 H        -0.709007         2.963989         3.100698
 H        -1.146759         1.339787         4.088520
 H         1.404283         1.687949         2.235394
 H         0.504106         0.064570         2.907558
