19
Iteration:  3065charge 0 multiplicity 1
 O         0.650256        -0.230533         0.267479
 C        -0.330628         0.550451         0.984713
 C        -1.591535        -0.126238         1.446778
 C        -1.819270         1.483519         1.938311
 C        -3.087118         2.059373         1.301849
 O        -2.425410         2.014170        -0.011205
 C        -1.123682         1.950525         0.612495
 C        -0.685397         1.697354         3.145634
 C         0.360891         0.916016         2.293193
 H         0.758732        -0.034325        -0.643933
 H        -2.383545        -0.439986         0.739231
 H        -1.333692        -0.901278         2.258754
 H        -3.895799         1.347866         1.510687
 H        -3.420022         3.109124         1.431101
 H        -0.595013         2.913666         0.641366
 H        -0.549023         2.711192         3.415336
 H        -0.910107         1.158555         4.075782
 H         1.203185         1.573272         1.990459
 H         0.681650         0.042804         2.721672
