19
Iteration:   739
 O         0.645105        -0.109906         0.097884
 C        -0.352884         0.546052         0.964570
 C        -1.658941         0.005432         1.644533
 C        -1.849863         1.492720         2.006256
 C        -3.125874         2.124590         1.252735
 O        -2.382067         1.817384        -0.017223
 C        -1.085124         1.785951         0.737897
 C        -0.814597         1.619095         3.060591
 C         0.481444         1.048089         2.209898
 H         1.465108        -0.166980         0.635514
 H        -2.392322        -0.424843         0.994228
 H        -1.364769        -0.571995         2.476799
 H        -4.079247         1.550698         1.176890
 H        -3.290365         3.240321         1.209692
 H        -0.665922         2.776850         0.769894
 H        -0.621193         2.648679         3.496950
 H        -0.842673         0.822378         3.819655
 H         1.454011         1.482102         1.833765
 H         0.825890         0.249073         2.685447
