19
Iteration:  3551charge 0 multiplicity 1
 O         0.564651        -0.047281         0.043010
 C        -0.245938         0.547495         0.956293
 C        -1.551969        -0.070048         1.465841
 C        -1.828129         1.472181         1.990702
 C        -3.054648         2.107906         1.237908
 O        -2.304789         1.895172         0.029926
 C        -1.043722         1.906250         0.731281
 C        -0.835100         1.708889         3.090679
 C         0.339796         0.838044         2.384903
 H         0.158463        -0.879770        -0.098933
 H        -2.265570        -0.387798         0.649179
 H        -1.659193        -0.805044         2.296741
 H        -4.031569         1.578544         1.279971
 H        -3.124132         3.143661         1.440972
 H        -0.608023         2.835387         0.974950
 H        -0.624372         2.789465         3.336112
 H        -1.261920         1.275186         3.989051
 H         1.428300         1.327458         2.628784
 H         0.308994        -0.174428         2.949514
