19
Iteration:  1913charge 0 multiplicity 1
 O         0.610343        -0.152846         0.130786
 C        -0.230114         0.519479         1.011702
 C        -1.588747        -0.021340         1.538950
 C        -1.794283         1.417764         1.956901
 C        -3.029425         2.129274         1.327460
 O        -2.371730         1.843413        -0.012803
 C        -1.088106         1.857271         0.648578
 C        -0.914854         1.599784         3.113714
 C         0.418472         1.153552         2.268721
 H        -0.017096        -0.693615        -0.286789
 H        -2.350414        -0.333339         0.818085
 H        -1.378484        -0.886144         2.215646
 H        -3.933332         1.722373         1.611487
 H        -3.045098         3.095265         1.637898
 H        -0.478765         2.682032         0.440397
 H        -0.820723         2.639404         3.469189
 H        -1.199304         0.875937         3.913434
 H         0.947944         2.051025         1.901276
 H         1.021082         0.318353         2.910319
