19
Iteration:  1967charge 0 multiplicity 1
 O         0.611036        -0.122652         0.184450
 C        -0.310342         0.524105         0.989580
 C        -1.631182        -0.013994         1.624292
 C        -1.820386         1.420106         1.951506
 C        -3.116714         1.975542         1.223936
 O        -2.324251         1.968335         0.011000
 C        -1.071954         1.876878         0.698586
 C        -0.787114         1.680101         3.045038
 C         0.399221         1.035505         2.252033
 H         0.165924        -0.306287        -0.636498
 H        -2.303126        -0.359878         0.807860
 H        -1.458075        -0.744232         2.485098
 H        -3.857071         1.094617         1.307817
 H        -3.540834         2.833543         1.686024
 H        -0.488701         2.766096         0.724546
 H        -0.545926         2.763402         3.037870
 H        -0.872296         1.260416         4.044217
 H         1.355644         1.505766         2.069975
 H         0.853256         0.072926         2.840243
