19
Iteration:  4073charge 0 multiplicity 1
 O         0.521671        -0.207026         0.126038
 C        -0.289855         0.516361         0.985196
 C        -1.626204         0.001137         1.315726
 C        -1.818028         1.483658         1.953244
 C        -2.974103         2.129060         1.333245
 O        -2.300989         2.109130        -0.027003
 C        -0.949187         1.854184         0.730743
 C        -0.924337         1.495805         3.143749
 C         0.267813         0.922254         2.409000
 H         1.253126        -0.576663         0.593753
 H        -2.232801        -0.112103         0.394279
 H        -1.620552        -0.944455         1.851255
 H        -3.838562         1.588784         1.142354
 H        -3.190172         3.227803         1.674033
 H        -0.279282         2.734383         0.571244
 H        -0.726374         2.532624         3.638835
 H        -1.184548         0.850826         4.000297
 H         1.029495         1.740930         2.073029
 H         0.854969         0.090018         2.934545
