19
Iteration:  4384charge 0 multiplicity 1
 O         0.575585        -0.146716         0.054804
 C        -0.307069         0.512466         0.972204
 C        -1.639877        -0.058110         1.417842
 C        -1.860204         1.487698         1.994418
 C        -3.032240         2.149786         1.224526
 O        -2.252958         2.119183        -0.051782
 C        -1.049966         1.938022         0.740869
 C        -0.816330         1.531523         3.167430
 C         0.334488         0.828761         2.436077
 H         0.800280        -1.018783         0.398680
 H        -2.318811        -0.315701         0.555867
 H        -1.756558        -0.841836         2.204350
 H        -3.966322         1.574574         1.030121
 H        -3.303066         3.184913         1.516590
 H        -0.373628         2.732109         0.709228
 H        -0.612554         2.541459         3.492612
 H        -1.157289         0.997871         4.112562
 H         1.215476         1.490726         2.413043
 H         0.602299        -0.183360         2.981999
