19
Iteration:  4628
 O         0.631100        -0.290892         0.093788
 C        -0.318363         0.516605         0.935066
 C        -1.660506         0.001685         1.414224
 C        -1.803347         1.499551         1.935842
 C        -3.008866         2.062826         1.293408
 O        -2.255577         2.242760         0.021253
 C        -0.956203         1.977615         0.665896
 C        -0.946686         1.503592         3.191503
 C         0.306460         0.878240         2.384499
 H         0.344249        -1.151962         0.468542
 H        -2.421928        -0.226016         0.583003
 H        -1.716877        -0.917061         2.142298
 H        -3.813815         1.370863         1.161068
 H        -3.389759         2.992807         1.715722
 H        -0.369867         2.916785         0.661398
 H        -0.810373         2.571274         3.562354
 H        -1.269572         0.738064         3.904261
 H         1.112201         1.633291         2.143858
 H         0.820331        -0.034524         2.878403
