19
Iteration:   470
 O         0.619259        -0.051858         0.164155
 C        -0.297400         0.507474         1.035505
 C        -1.713894        -0.081018         1.654918
 C        -1.825567         1.477008         1.959511
 C        -3.094930         2.075276         1.262630
 O        -2.429070         1.936898        -0.046721
 C        -1.057234         1.796863         0.596629
 C        -0.721415         1.525114         3.091654
 C         0.411807         1.055062         2.241485
 H         1.528582         0.074049         0.478262
 H        -2.419978        -0.486984         0.951414
 H        -1.490809        -0.610817         2.621803
 H        -4.033694         1.525749         1.174458
 H        -3.189069         3.227987         1.417442
 H        -0.492696         2.637423         0.400518
 H        -0.650627         2.590097         3.393782
 H        -0.875549         0.975576         3.994500
 H         0.925517         1.873841         1.825733
 H         1.065693         0.152330         2.664114
