19
Iteration:  1572
 O         0.466594        -0.145381         0.093368
 C        -0.234634         0.516271         1.029112
 C        -1.567842        -0.090447         1.590866
 C        -1.829645         1.454060         1.965212
 C        -3.035968         2.071174         1.191050
 O        -2.301605         1.885246        -0.003733
 C        -1.004643         1.785169         0.666945
 C        -0.913051         1.656135         3.184464
 C         0.423380         1.175605         2.301021
 H        -0.073815        -0.304372        -0.736557
 H        -2.359867        -0.329839         0.900637
 H        -1.534498        -0.749856         2.489403
 H        -3.893397         1.463242         1.335474
 H        -3.186494         3.132940         1.450140
 H        -0.286474         2.635906         0.565068
 H        -0.609961         2.734480         3.392945
 H        -0.986666         0.962095         4.072739
 H         1.162316         1.858141         2.009265
 H         0.912903         0.332467         2.855355
