19
Iteration:  3634
 O         0.561808        -0.189014         0.097844
 C        -0.317256         0.494212         0.979411
 C        -1.614410        -0.112723         1.494505
 C        -1.865398         1.371108         1.963296
 C        -2.974992         2.180156         1.330308
 O        -2.363100         2.090239        -0.046890
 C        -1.066207         1.806039         0.677622
 C        -0.858421         1.577910         3.074543
 C         0.425270         1.045173         2.354601
 H         1.492598        -0.341093         0.433580
 H        -2.312565        -0.327916         0.685106
 H        -1.602508        -0.889353         2.257803
 H        -3.971508         1.749926         1.472174
 H        -2.976470         3.290815         1.566114
 H        -0.462601         2.855932         0.785014
 H        -0.982722         2.564433         3.446295
 H        -1.278755         0.888655         3.862931
 H         1.206627         1.724226         2.276339
 H         0.795701         0.114087         2.811171
