19
Iteration:  1352
 O         0.668465        -0.115119         0.162347
 C        -0.247961         0.520514         0.957233
 C        -1.605422        -0.005160         1.534941
 C        -1.810083         1.448312         1.960525
 C        -3.064768         2.110725         1.290226
 O        -2.482705         1.864240         0.024454
 C        -1.057729         1.828020         0.630846
 C        -0.804686         1.682824         3.088354
 C         0.330416         1.007411         2.258620
 H         1.115058        -0.915961         0.600937
 H        -2.354401        -0.411421         0.787385
 H        -1.379747        -0.701353         2.383024
 H        -4.039222         1.560594         1.582630
 H        -3.387761         3.153670         1.470121
 H        -0.535948         2.742788         0.217209
 H        -0.614727         2.791484         3.210527
 H        -0.957293         1.200044         4.066426
 H         1.172058         1.662077         2.120891
 H         0.962067         0.212276         2.830628
