19
Iteration:  2298charge 0 multiplicity 1
 O         0.500722        -0.050945         0.082100
 C        -0.334767         0.526906         0.998776
 C        -1.578976        -0.079923         1.687852
 C        -1.908430         1.420979         2.003988
 C        -3.046762         2.095453         1.207644
 O        -2.303217         1.898589        -0.097002
 C        -1.057412         1.804736         0.674965
 C        -0.763230         1.606255         3.156446
 C         0.428432         1.024373         2.311409
 H         0.113146        -0.133762        -0.822902
 H        -2.207642        -0.602622         0.976738
 H        -1.488751        -0.671908         2.583748
 H        -4.066052         1.533734         1.108953
 H        -2.996082         3.195286         1.510962
 H        -0.370497         2.793862         0.745476
 H        -0.663994         2.679919         3.389677
 H        -0.808618         1.126264         4.137416
 H         1.198934         1.842679         2.131879
 H         1.094084         0.277006         2.892389
