19
Iteration:  4118
 O         0.446213        -0.176829         0.093438
 C        -0.307977         0.528546         1.003316
 C        -1.614757        -0.061735         1.493023
 C        -1.879955         1.462776         1.971285
 C        -3.005025         2.133256         1.158535
 O        -2.178622         2.080836        -0.072390
 C        -0.981759         1.916405         0.792205
 C        -0.895572         1.518795         3.201537
 C         0.303410         0.857089         2.322367
 H         1.265619         0.283260        -0.015007
 H        -2.404585        -0.401507         0.779116
 H        -1.521084        -0.837431         2.271367
 H        -3.904925         1.637940         1.200109
 H        -3.116898         3.267709         1.392062
 H        -0.394444         2.875410         0.783947
 H        -0.590652         2.524316         3.697514
 H        -1.209845         0.864788         4.032200
 H         1.240888         1.547662         2.294112
 H         0.763738        -0.096281         2.825730
