19
Iteration:   390
 O         0.591646        -0.062826         0.076540
 C        -0.267706         0.549016         0.982772
 C        -1.550840        -0.063924         1.677245
 C        -1.852421         1.524044         2.008049
 C        -3.106552         2.020198         1.190702
 O        -2.331425         1.862998        -0.041454
 C        -1.057293         1.845207         0.759003
 C        -0.832199         1.619114         3.094887
 C         0.390560         1.053439         2.263194
 H         0.216804        -0.871002        -0.318966
 H        -2.280141        -0.710798         1.073764
 H        -1.516218        -0.635553         2.592637
 H        -4.101039         1.494507         1.138494
 H        -3.294150         3.140915         1.315127
 H        -0.501428         2.789957         0.686647
 H        -0.549604         2.627399         3.474917
 H        -0.979127         0.990394         3.970580
 H         1.102623         1.873707         1.894881
 H         0.893680         0.327125         2.810053
