19
Iteration:  1490
 O         0.694042        -0.118266         0.151104
 C        -0.305164         0.497002         0.996910
 C        -1.499098        -0.134062         1.500540
 C        -1.913651         1.404068         1.911160
 C        -3.042172         2.180296         1.324157
 O        -2.448135         1.957264         0.006189
 C        -1.088781         1.782181         0.668527
 C        -0.823290         1.782445         3.011953
 C         0.381477         0.974084         2.396445
 H         0.290011        -0.862887        -0.239734
 H        -2.194921        -0.560923         0.737435
 H        -1.329426        -0.919929         2.246327
 H        -4.115911         1.793399         1.414795
 H        -3.159463         3.246926         1.755184
 H        -0.459618         2.625907         0.485669
 H        -0.553049         2.824912         3.118052
 H        -1.086096         1.476364         4.025668
 H         1.366284         1.436533         2.222956
 H         0.630359         0.077901         2.911905
