19
Iteration:  4636charge 0 multiplicity 1
 O         0.594121        -0.223206         0.115157
 C        -0.295707         0.453649         0.984289
 C        -1.677605        -0.052270         1.384980
 C        -1.728569         1.415128         1.901707
 C        -2.999221         2.078923         1.299250
 O        -2.299662         2.273882         0.006917
 C        -0.973682         1.924908         0.636084
 C        -0.904260         1.538082         3.155637
 C         0.296419         0.916592         2.442117
 H         0.444608        -1.235646         0.184582
 H        -2.398124        -0.057933         0.582981
 H        -1.721616        -0.791141         2.192260
 H        -3.938660         1.523737         1.163984
 H        -3.155762         3.110215         1.660841
 H        -0.309525         2.933671         0.636671
 H        -0.987609         2.389193         3.757612
 H        -1.187196         0.846394         3.942332
 H         1.136456         1.541823         2.275365
 H         0.638929         0.032179         2.907748
