19
Iteration:  3465charge 0 multiplicity 1
 O         0.448965        -0.271547         0.148331
 C        -0.259695         0.503043         1.023657
 C        -1.547395        -0.026813         1.363246
 C        -1.830342         1.453534         2.038751
 C        -3.024729         2.028137         1.292560
 O        -2.350241         1.977160        -0.033154
 C        -1.038951         1.916156         0.695740
 C        -0.846487         1.636727         3.137450
 C         0.399008         1.067202         2.336721
 H         1.276037         0.121943        -0.204919
 H        -2.248981        -0.208959         0.538403
 H        -1.510797        -0.906799         2.007959
 H        -3.976223         1.545419         1.362970
 H        -3.243257         3.169621         1.619476
 H        -0.320970         2.892964         0.541514
 H        -0.698379         2.688319         3.556039
 H        -1.104124         0.963307         3.930272
 H         1.169483         1.788161         2.239043
 H         0.688535         0.105559         2.821420
