19
Iteration:    97
 O         0.802022        -0.051205         0.099457
 C        -0.227041         0.512867         0.995882
 C        -1.620682        -0.013470         1.714103
 C        -1.876803         1.480829         1.986672
 C        -3.163575         1.953570         1.292218
 O        -2.486888         1.801581        -0.049997
 C        -1.187177         1.815788         0.686435
 C        -0.743540         1.790476         3.013293
 C         0.466371         1.021269         2.269728
 H         0.308582        -0.711965        -0.459113
 H        -2.344468        -0.472196         1.091711
 H        -1.425156        -0.535665         2.630631
 H        -4.050641         1.364203         1.303113
 H        -3.320128         3.070865         1.357548
 H        -0.794255         2.862394         0.567152
 H        -0.584699         2.937189         3.151148
 H        -0.932252         1.309237         3.965510
 H         1.365623         1.664786         2.171331
 H         0.802722         0.158628         2.839727
