19
Iteration:  1822
 O         0.535447        -0.188519         0.098595
 C        -0.258518         0.617137         0.998485
 C        -1.570005        -0.034679         1.567450
 C        -1.843722         1.467085         1.961805
 C        -3.043038         1.999586         1.220515
 O        -2.320249         1.883590        -0.047449
 C        -1.093311         1.882519         0.749743
 C        -0.820775         1.629349         3.172184
 C         0.425172         1.109668         2.327727
 H        -0.121945        -0.708138        -0.435340
 H        -2.324503        -0.325444         0.762863
 H        -1.345790        -0.809600         2.370436
 H        -4.064808         1.501647         1.207523
 H        -3.282899         2.982203         1.386069
 H        -0.615224         2.854779         0.546489
 H        -0.549235         2.666796         3.376061
 H        -1.006034         1.042010         4.047287
 H         1.177205         1.895444         2.100781
 H         0.978320         0.122782         2.758191
