19
Iteration:  1854charge 0 multiplicity 1
 O         0.592180        -0.106610         0.111116
 C        -0.259271         0.555098         1.013293
 C        -1.603820        -0.032454         1.538073
 C        -1.775683         1.478929         1.875511
 C        -3.060371         1.961326         1.315941
 O        -2.383339         1.891217         0.009961
 C        -1.047381         1.849155         0.698641
 C        -0.809190         1.778418         3.058930
 C         0.328629         0.949155         2.408413
 H         0.183998         0.047433        -0.791086
 H        -2.383601        -0.384075         0.785594
 H        -1.392651        -0.807371         2.348133
 H        -3.902924         1.161130         1.480190
 H        -3.261298         2.955759         1.507605
 H        -0.485665         2.743566         0.339591
 H        -0.380919         2.785634         3.132434
 H        -1.095638         1.447624         4.050943
 H         1.315170         1.395868         2.313695
 H         0.622296         0.017134         2.905041
