19
Iteration:  2987charge 0 multiplicity 1
 O         0.496251        -0.066961         0.106872
 C        -0.306035         0.553907         1.016158
 C        -1.673063        -0.065321         1.617461
 C        -1.885820         1.401769         1.971810
 C        -3.050660         2.006195         1.232750
 O        -2.257815         1.931883        -0.052839
 C        -1.001397         1.975779         0.719676
 C        -0.749822         1.627343         3.094871
 C         0.412378         0.964010         2.306253
 H         0.106518        -0.713953        -0.425269
 H        -2.372254        -0.606790         0.960462
 H        -1.477761        -0.666859         2.601794
 H        -4.013265         1.455614         1.051894
 H        -3.276347         3.011190         1.585604
 H        -0.435522         2.885055         0.508967
 H        -0.525743         2.646202         3.267288
 H        -0.989763         1.101656         3.991715
 H         1.239470         1.778568         2.264358
 H         0.819327         0.102133         2.731628
