19
Iteration:  2736charge 0 multiplicity 1
 O         0.621644        -0.111855         0.052242
 C        -0.307894         0.517151         1.012450
 C        -1.652877        -0.045961         1.580500
 C        -1.861676         1.503435         1.982760
 C        -3.116971         1.992335         1.261730
 O        -2.270877         1.964253        -0.016250
 C        -0.983870         1.872578         0.711292
 C        -0.854031         1.720795         3.153565
 C         0.423822         0.884901         2.304174
 H        -0.096441        -0.496012        -0.563853
 H        -2.386756        -0.434892         0.833519
 H        -1.484849        -0.662868         2.455846
 H        -3.914466         1.338701         1.111025
 H        -3.365579         3.087438         1.547208
 H        -0.374511         2.803563         0.583848
 H        -0.558607         2.767617         3.405072
 H        -1.332898         1.254635         4.034438
 H         1.154468         1.668757         2.046700
 H         0.831859         0.084493         2.805086
