19
Iteration:  2608
 O         0.588349        -0.160504         0.008104
 C        -0.225718         0.515644         0.975081
 C        -1.585588        -0.051080         1.531135
 C        -1.850522         1.438858         1.963597
 C        -3.043253         2.076023         1.266546
 O        -2.358033         2.012853         0.027892
 C        -1.021673         1.760233         0.712781
 C        -0.841984         1.733747         3.090146
 C         0.381995         0.997928         2.439837
 H        -0.015773        -0.697971        -0.470931
 H        -2.319374        -0.247877         0.735928
 H        -1.624237        -0.899782         2.186952
 H        -4.036305         1.457621         1.310781
 H        -3.380711         3.004868         1.587643
 H        -0.555780         2.717432         0.700621
 H        -0.725399         2.843942         3.142122
 H        -1.056020         1.299188         4.069898
 H         1.283938         1.621947         2.391107
 H         0.826798         0.001617         2.930579
