19
Iteration:  4580
 O         0.444222         0.000010        -0.027060
 C        -0.312658         0.439248         1.024862
 C        -1.726131        -0.063589         1.454087
 C        -1.832218         1.434270         1.989835
 C        -2.904762         2.179318         1.258606
 O        -2.203039         2.080178        -0.101680
 C        -0.956314         1.777021         0.729069
 C        -0.905149         1.513137         3.216057
 C         0.354871         0.897212         2.478560
 H         0.951133        -0.790989         0.294159
 H        -2.414468        -0.264638         0.680791
 H        -1.820476        -0.810493         2.193349
 H        -3.915229         1.766355         1.256189
 H        -2.936562         3.241908         1.428516
 H        -0.355390         2.756144         0.636817
 H        -0.767361         2.501885         3.404435
 H        -1.255973         0.942741         4.040090
 H         1.097253         1.636592         2.428041
 H         0.781116         0.017008         2.788230
