19
Iteration:  1713charge 0 multiplicity 1
 O         0.552403        -0.055266         0.084866
 C        -0.296910         0.513320         0.981049
 C        -1.620327        -0.020762         1.663439
 C        -1.810731         1.491294         1.938555
 C        -3.108546         2.014731         1.270543
 O        -2.291779         1.882345        -0.008215
 C        -1.001407         1.796737         0.684547
 C        -0.833225         1.723858         3.084388
 C         0.386120         0.995663         2.332434
 H         0.062067        -0.600180        -0.590503
 H        -2.282110        -0.425492         0.862405
 H        -1.581989        -0.730642         2.551944
 H        -3.815702         1.223415         1.271880
 H        -3.431492         3.096571         1.282237
 H        -0.505484         2.714847         0.544502
 H        -0.532334         2.759049         3.322633
 H        -0.937448         1.185613         3.996677
 H         1.216985         1.625673         2.039741
 H         0.894683         0.135029         2.945846
