19
Iteration:  1443charge 0 multiplicity 1
 O         0.519871        -0.167287         0.174131
 C        -0.276769         0.535799         1.024429
 C        -1.619110        -0.018503         1.567560
 C        -1.762501         1.543823         1.974159
 C        -3.093260         2.056360         1.244283
 O        -2.294862         1.862616        -0.008051
 C        -1.038171         1.828753         0.640584
 C        -0.804502         1.592621         3.141557
 C         0.386633         1.097218         2.296708
 H         0.154743         0.026693        -0.739300
 H        -2.251589        -0.360506         0.781274
 H        -1.598317        -0.809803         2.293397
 H        -4.094468         1.358355         1.285555
 H        -3.518884         3.070032         1.193290
 H        -0.342295         2.616681         0.321984
 H        -0.739110         2.491174         3.657334
 H        -1.047023         0.916680         3.987699
 H         1.126913         1.983028         2.054954
 H         1.040919         0.338277         2.754246
