19
Iteration:  4894charge 0 multiplicity 1
 O         0.562617        -0.253636         0.132661
 C        -0.277805         0.506061         1.015749
 C        -1.610458        -0.045462         1.430026
 C        -1.887661         1.448425         1.994981
 C        -3.066442         2.235345         1.171800
 O        -2.248418         2.127118        -0.069917
 C        -1.068617         1.861801         0.812375
 C        -0.823156         1.524198         3.153421
 C         0.400971         0.883304         2.400526
 H         0.166511        -0.176208        -0.731237
 H        -2.263895        -0.268424         0.558582
 H        -1.419587        -0.936177         2.162248
 H        -4.053219         1.660238         1.129925
 H        -3.267868         3.328127         1.524133
 H        -0.391801         2.813220         0.747690
 H        -0.751304         2.552091         3.478413
 H        -1.138728         0.939299         4.024787
 H         1.309257         1.566019         2.314587
 H         0.621097        -0.025322         2.953920
