19
Iteration:   727charge 0 multiplicity 1
 O         0.585649        -0.128982         0.036000
 C        -0.264424         0.558183         0.998163
 C        -1.609942        -0.011545         1.613232
 C        -1.846712         1.527288         1.984301
 C        -3.063758         2.105625         1.223351
 O        -2.362044         1.731333         0.010017
 C        -1.120424         1.902732         0.691449
 C        -0.791183         1.638865         3.151312
 C         0.401934         1.001654         2.247577
 H         1.443965        -0.214144         0.428133
 H        -2.325450        -0.320815         0.906244
 H        -1.639773        -0.697626         2.445850
 H        -4.045556         1.586388         1.360193
 H        -3.202454         3.213932         1.403581
 H        -0.605880         2.817822         0.377720
 H        -0.660505         2.645218         3.641651
 H        -1.119415         0.989359         3.967794
 H         1.067269         1.847489         2.023281
 H         0.875624         0.205369         2.702183
