19
Iteration:   492
 O         0.620943        -0.246212         0.075625
 C        -0.327185         0.553980         0.970615
 C        -1.596807        -0.022367         1.511472
 C        -1.833300         1.473297         1.991544
 C        -2.986940         2.112848         1.332432
 O        -2.398605         1.829884         0.006479
 C        -1.092811         1.791514         0.672210
 C        -0.855556         1.634699         3.121039
 C         0.368376         1.172932         2.262508
 H         1.492025         0.153076         0.327766
 H        -2.190770        -0.269309         0.654701
 H        -1.526760        -0.797549         2.334048
 H        -3.951735         1.594561         1.418273
 H        -2.992828         3.233929         1.587302
 H        -0.533739         2.669378         0.603004
 H        -0.866970         2.560096         3.706469
 H        -1.135092         0.864756         3.833030
 H         0.865016         2.052377         1.971057
 H         1.002852         0.378459         2.814961
