19
Iteration:  3793charge 0 multiplicity 1
 O         0.589876        -0.187880         0.189491
 C        -0.312137         0.472029         0.977932
 C        -1.681590         0.008655         1.464133
 C        -1.834035         1.515504         1.894778
 C        -3.027240         2.110275         1.317705
 O        -2.314933         2.091451         0.020554
 C        -0.982437         1.781322         0.645004
 C        -0.837392         1.591815         3.128032
 C         0.320340         0.875873         2.288679
 H         1.396223         0.399985         0.160851
 H        -2.355022        -0.179411         0.626835
 H        -1.657248        -0.913986         2.087808
 H        -4.026063         1.475569         1.450314
 H        -3.197902         3.142417         1.682928
 H        -0.375717         2.772444         0.426353
 H        -0.669365         2.599978         3.571971
 H        -1.153616         0.938276         3.940166
 H         1.220694         1.478356         2.359836
 H         0.505665        -0.044897         2.647160
