19
Iteration:  1309
 O         0.529613        -0.143891         0.046498
 C        -0.275986         0.538316         1.028029
 C        -1.504447        -0.042753         1.611568
 C        -1.898242         1.503232         1.977284
 C        -3.055383         2.032898         1.232595
 O        -2.345470         1.816507         0.012917
 C        -1.011755         1.824700         0.725962
 C        -0.856320         1.665646         3.102223
 C         0.434841         1.133226         2.318704
 H        -0.169140        -0.747955        -0.387281
 H        -2.146930        -0.395257         0.763414
 H        -1.403178        -0.734373         2.452832
 H        -4.140649         1.627378         1.131880
 H        -3.297593         3.093518         1.347175
 H        -0.418316         2.759193         0.656905
 H        -0.696813         2.724212         3.287778
 H        -1.067503         1.080617         3.999528
 H         1.070422         1.893795         1.911308
 H         1.167970         0.461283         2.843965
