19
Iteration:  3535
 O         0.681467        -0.057868         0.084237
 C        -0.333134         0.524412         0.990393
 C        -1.695233        -0.029430         1.506665
 C        -1.891233         1.412196         1.982912
 C        -2.996174         2.090653         1.302001
 O        -2.293139         1.954012        -0.032320
 C        -1.044720         1.850737         0.796019
 C        -0.838965         1.642654         3.082865
 C         0.359769         0.893496         2.345362
 H         0.273133        -0.776942        -0.413878
 H        -2.385105        -0.240976         0.715812
 H        -1.586163        -0.868354         2.210260
 H        -4.041934         1.659078         1.183978
 H        -3.132464         3.202932         1.557042
 H        -0.516523         2.806584         0.512438
 H        -0.613659         2.697141         3.061773
 H        -0.909658         1.338099         4.172912
 H         1.125714         1.523440         2.050709
 H         0.689744         0.097129         2.958073
