19
Iteration:  3527
 O         0.682716        -0.045317         0.154320
 C        -0.351943         0.507765         0.936399
 C        -1.725048        -0.112836         1.489115
 C        -1.853941         1.434896         2.021360
 C        -3.021802         2.131781         1.279421
 O        -2.311741         2.006337        -0.025945
 C        -1.039647         1.788271         0.702847
 C        -0.798693         1.593437         3.110240
 C         0.394556         0.954470         2.336701
 H         0.127388        -0.568149        -0.476964
 H        -2.492422        -0.335523         0.720066
 H        -1.775026        -0.909957         2.300170
 H        -4.024219         1.542607         1.185077
 H        -3.121704         3.129702         1.572825
 H        -0.396558         2.570704         0.583963
 H        -0.596007         2.645947         3.135593
 H        -1.114375         1.333285         4.157609
 H         1.176995         1.831964         2.205925
 H         0.880041         0.203681         2.961894
