19
Iteration:  2344
 O         0.636902        -0.262620         0.129158
 C        -0.259453         0.566843         0.962355
 C        -1.602333        -0.048736         1.448488
 C        -1.779645         1.429318         1.969578
 C        -3.068937         1.917444         1.333112
 O        -2.422061         2.048678         0.038827
 C        -1.067698         1.874237         0.677472
 C        -0.778340         1.768745         3.086994
 C         0.355840         1.016486         2.394308
 H        -0.034195        -0.514962        -0.467296
 H        -2.327020        -0.188742         0.694467
 H        -1.519049        -0.852601         2.116887
 H        -3.912371         1.231348         1.127408
 H        -3.305354         2.990933         1.518896
 H        -0.477673         2.903809         0.375105
 H        -0.470834         2.819502         3.060212
 H        -1.031229         1.487605         4.087005
 H         1.163555         1.605473         2.344635
 H         0.721655         0.039516         2.905096
