19
Iteration:   547
 O         0.599489        -0.192628         0.078584
 C        -0.373402         0.533002         0.929029
 C        -1.608409        -0.080051         1.682104
 C        -1.832195         1.464649         1.994917
 C        -3.117644         1.896235         1.225302
 O        -2.326705         1.985687         0.007818
 C        -1.030232         1.880689         0.670375
 C        -0.783954         1.763078         3.130067
 C         0.390173         0.995635         2.302272
 H         0.978730         0.611072        -0.414694
 H        -2.326412        -0.404904         0.931322
 H        -1.464809        -0.715531         2.602752
 H        -3.907555         1.142525         1.036883
 H        -3.733356         2.842171         1.458340
 H        -0.329871         2.731008         0.512221
 H        -0.611259         2.836016         3.163581
 H        -1.011535         1.454982         4.137475
 H         1.152422         1.681796         2.121750
 H         0.989525         0.078835         2.771867
