19
Iteration:   484
 O         0.628377        -0.162060         0.126831
 C        -0.359242         0.525544         0.970897
 C        -1.642823        -0.060376         1.597679
 C        -1.807792         1.468573         1.954694
 C        -3.030568         2.132887         1.330550
 O        -2.354626         1.852454        -0.028849
 C        -1.114727         1.797482         0.638083
 C        -0.854028         1.594915         3.126065
 C         0.420633         1.143283         2.195527
 H         1.488699         0.236499         0.461285
 H        -2.393681        -0.385869         0.864424
 H        -1.730803        -0.863358         2.353743
 H        -3.959667         1.551982         1.594114
 H        -3.190279         3.205869         1.525290
 H        -0.474993         2.663059         0.502804
 H        -0.678783         2.521627         3.647529
 H        -1.169577         0.729569         3.813166
 H         1.058112         2.038145         2.006718
 H         1.163367         0.413754         2.805351
