19
Iteration:  1173
 O         0.503659        -0.153173         0.068110
 C        -0.292956         0.562507         0.981047
 C        -1.542375        -0.101054         1.610970
 C        -1.862387         1.436492         1.956573
 C        -3.091188         1.981797         1.293298
 O        -2.371603         1.946363        -0.021127
 C        -1.019046         1.795912         0.663470
 C        -0.801484         1.703267         3.086606
 C         0.413428         1.129133         2.330901
 H         1.274646        -0.556435         0.457075
 H        -2.383890        -0.465472         0.954543
 H        -1.429443        -0.659643         2.584073
 H        -3.968062         1.355538         1.436282
 H        -3.455723         3.027094         1.351851
 H        -0.300659         2.669082         0.363337
 H        -0.659229         2.833425         3.233034
 H        -1.024046         1.155246         4.022711
 H         0.954753         1.960046         1.948875
 H         1.058920         0.283820         2.728895
