19
Iteration:    56charge 0 multiplicity 1
 O         0.579591        -0.275807         0.123658
 C        -0.237231         0.553524         0.968649
 C        -1.540051        -0.065114         1.498115
 C        -1.794397         1.420516         1.980395
 C        -3.109070         1.933921         1.388189
 O        -2.426218         1.801167         0.077948
 C        -1.066199         1.773770         0.597713
 C        -0.872607         1.868476         3.047067
 C         0.430487         1.304848         2.325329
 H         1.117561         0.306071        -0.394189
 H        -2.124179        -0.292153         0.584128
 H        -1.667602        -0.870403         2.201927
 H        -3.926265         1.209585         1.505928
 H        -3.353200         2.942331         1.706207
 H        -0.500567         2.619974         0.358781
 H        -0.947661         2.918368         3.245785
 H        -0.984192         1.200038         3.871685
 H         1.202253         1.963931         1.967637
 H         0.830046         0.497328         2.977448
