19
Iteration:  2547charge 0 multiplicity 1
 O         0.630331        -0.179732         0.124344
 C        -0.308838         0.483159         0.992843
 C        -1.644741        -0.049437         1.513568
 C        -1.787914         1.515989         1.968352
 C        -3.084689         2.131683         1.301865
 O        -2.408264         1.920722        -0.054237
 C        -1.000267         1.789085         0.657117
 C        -0.817492         1.624293         3.168933
 C         0.442329         1.027667         2.349687
 H         0.290152        -0.048566        -0.731097
 H        -2.387115        -0.278482         0.724589
 H        -1.608117        -0.913710         2.261687
 H        -3.958075         1.556762         1.350088
 H        -3.238910         3.270225         1.594293
 H        -0.563183         2.871968         0.633832
 H        -0.828840         2.570164         3.722550
 H        -1.039447         0.964642         4.042413
 H         1.013311         1.859443         1.906710
 H         1.025491         0.407416         2.857042
