19
Iteration:  3664
 O         0.593452        -0.240433         0.122949
 C        -0.303517         0.535133         0.926788
 C        -1.622089        -0.000334         1.428501
 C        -1.798086         1.484703         1.995386
 C        -3.006183         2.091669         1.326227
 O        -2.373915         1.990230         0.020703
 C        -1.012595         1.873363         0.650829
 C        -0.868803         1.643087         3.143375
 C         0.329823         0.880873         2.382249
 H         1.273380         0.343142        -0.249502
 H        -2.314626        -0.062919         0.623249
 H        -1.666554        -0.802398         2.149249
 H        -3.877532         1.540628         1.398627
 H        -3.180698         3.210297         1.385386
 H        -0.499634         2.794922         0.547514
 H        -0.679634         2.744050         3.304550
 H        -1.363674         1.238643         4.057258
 H         1.283729         1.503437         2.412985
 H         0.721990        -0.223561         2.745188
