19
Iteration:  3143charge 0 multiplicity 1
 O         0.564650        -0.133559         0.013017
 C        -0.246077         0.612375         1.019136
 C        -1.626237        -0.038705         1.577036
 C        -1.863344         1.500697         1.962906
 C        -2.985386         2.149380         1.252789
 O        -2.330548         1.779022        -0.052620
 C        -1.070685         1.872086         0.778343
 C        -0.859835         1.567260         3.125954
 C         0.442924         1.045271         2.327736
 H        -0.009274        -0.781145        -0.445457
 H        -2.461422        -0.311542         0.855604
 H        -1.670007        -0.673464         2.509134
 H        -4.050350         1.793398         1.202661
 H        -2.965147         3.290397         1.524793
 H        -0.495140         2.971013         0.673429
 H        -0.754731         2.557802         3.530832
 H        -1.171806         0.864231         3.958357
 H         1.326853         1.657384         2.327002
 H         0.848998         0.192618         2.876459
