19
Iteration:   222charge 0 multiplicity 1
 O         0.747753        -0.137573         0.106825
 C        -0.254591         0.542350         0.989951
 C        -1.552681        -0.104765         1.594596
 C        -1.830483         1.461179         1.971533
 C        -3.086090         2.050790         1.334510
 O        -2.479540         1.853976        -0.078264
 C        -1.180444         1.817169         0.714716
 C        -0.815907         1.750257         3.095746
 C         0.458181         1.086262         2.290824
 H         0.235724        -0.679686        -0.516131
 H        -2.250994        -0.477611         0.827617
 H        -1.556380        -0.912827         2.396620
 H        -4.141792         1.640455         1.429761
 H        -3.202792         3.134657         1.561556
 H        -0.688409         2.770474         0.564186
 H        -0.689398         2.837176         3.069001
 H        -1.117455         1.427440         4.162590
 H         1.326937         1.700908         2.102105
 H         0.777087         0.246295         2.953443
