19
Iteration:  1069
 O         0.512604        -0.310364         0.107562
 C        -0.261914         0.551213         1.006913
 C        -1.532659        -0.084178         1.572948
 C        -1.832798         1.419751         1.956461
 C        -3.041808         2.033610         1.354772
 O        -2.419146         1.857969        -0.041818
 C        -1.099138         1.814172         0.653443
 C        -0.853439         1.723176         3.131383
 C         0.443545         1.271578         2.259511
 H         1.311130         0.112855        -0.363723
 H        -2.183900        -0.372006         0.791782
 H        -1.329319        -0.902602         2.248226
 H        -4.017128         1.459022         1.371799
 H        -3.081090         3.107085         1.591253
 H        -0.667460         2.865176         0.596280
 H        -0.890546         2.791852         3.362025
 H        -0.997741         1.171318         4.123462
 H         1.308451         2.059202         2.036473
 H         1.015460         0.572398         2.875555
