19
Iteration:  1200
 O         0.602109        -0.192748         0.119566
 C        -0.288301         0.507363         0.994115
 C        -1.607496        -0.062080         1.652652
 C        -1.854227         1.412974         1.953946
 C        -3.065324         2.032707         1.264662
 O        -2.418820         1.918458        -0.039830
 C        -1.102008         1.819827         0.671618
 C        -0.767646         1.652240         3.085696
 C         0.431917         1.175936         2.251774
 H         1.524410        -0.092128         0.389959
 H        -2.453161        -0.269207         1.029569
 H        -1.629446        -0.708733         2.520897
 H        -4.143919         1.586664         1.404352
 H        -3.027752         3.140919         1.325794
 H        -0.594658         2.763695         0.615453
 H        -0.748278         2.588828         3.560896
 H        -0.919069         0.851191         3.818396
 H         0.933724         2.044861         1.740170
 H         0.992300         0.399382         2.732061
