19
Iteration:  4705
 O         0.518836        -0.080323         0.114052
 C        -0.276924         0.461361         1.056117
 C        -1.702519         0.029512         1.486722
 C        -1.774545         1.537275         1.881502
 C        -3.058894         2.150393         1.237666
 O        -2.222059         2.026100        -0.054863
 C        -0.920301         1.897892         0.684346
 C        -0.913058         1.429184         3.165184
 C         0.353392         0.741083         2.438790
 H         0.236714         0.523368        -0.636368
 H        -2.322328        -0.167007         0.534047
 H        -1.952648        -0.699284         2.398896
 H        -3.927781         1.537961         1.247000
 H        -3.220545         3.197400         1.508140
 H        -0.371454         2.920510         0.398273
 H        -0.419792         2.392328         3.521754
 H        -1.319868         1.110726         4.131702
 H         1.079328         1.609267         2.414147
 H         0.824929        -0.130311         3.042109
