19
Iteration:  3963
 O         0.519206        -0.129951         0.139175
 C        -0.304764         0.540242         0.948839
 C        -1.634129        -0.000971         1.516032
 C        -1.838004         1.407563         1.958787
 C        -3.013571         2.089049         1.185875
 O        -2.209981         2.166079        -0.073723
 C        -0.989202         1.907337         0.739407
 C        -0.884626         1.408198         3.174314
 C         0.351514         0.959843         2.400267
 H         0.073467        -0.971147        -0.189505
 H        -2.295503        -0.271713         0.706832
 H        -1.645160        -0.781549         2.301520
 H        -3.826583         1.454879         0.958873
 H        -3.181812         3.232228         1.533097
 H        -0.250165         2.871905         0.735911
 H        -0.843596         2.408436         3.692146
 H        -1.161005         0.634057         3.927228
 H         1.150259         1.580261         2.360075
 H         0.626586        -0.065914         2.753537
