19
Iteration:  2795
 O         0.712538        -0.260096         0.170868
 C        -0.292397         0.517443         0.954657
 C        -1.612360        -0.067656         1.481721
 C        -1.896043         1.420380         2.003105
 C        -3.021429         2.176818         1.303125
 O        -2.404926         1.977734         0.000085
 C        -1.083735         1.762284         0.715814
 C        -0.818976         1.619012         3.057270
 C         0.362308         1.106606         2.301359
 H         0.568917         0.064344        -0.715186
 H        -2.345122        -0.432462         0.809591
 H        -1.469604        -0.873266         2.201511
 H        -4.204647         1.972480         1.375723
 H        -3.030953         3.296548         1.630495
 H        -0.431970         2.756265         0.680448
 H        -0.703194         2.596169         3.525286
 H        -1.156853         0.945715         3.854142
 H         1.082239         1.823006         2.134594
 H         0.957268         0.333420         2.877136
