19
Iteration:  2526
 O         0.587581        -0.186893         0.189738
 C        -0.275693         0.565951         1.020486
 C        -1.564921        -0.067127         1.524511
 C        -1.851602         1.392038         1.939906
 C        -2.903938         2.230363         1.348562
 O        -2.401560         1.874030         0.018527
 C        -1.093382         1.811024         0.594405
 C        -0.903229         1.471493         3.060232
 C         0.385685         1.158956         2.313044
 H         0.235860        -0.063617        -0.762697
 H        -2.125216        -0.423196         0.649629
 H        -1.683402        -0.783755         2.391054
 H        -3.916871         1.993056         1.489111
 H        -2.497941         3.257525         1.661989
 H        -0.538153         2.796355         0.148762
 H        -0.982840         2.481144         3.505075
 H        -1.018330         0.892643         4.008275
 H         0.984527         2.080364         2.179252
 H         0.884938         0.404445         2.700557
