19
Iteration:    68
 O         0.563076        -0.197771         0.242633
 C        -0.253290         0.608860         0.995312
 C        -1.466998        -0.105055         1.433233
 C        -1.832013         1.429266         1.942413
 C        -3.091754         1.914960         1.435424
 O        -2.464008         1.810177         0.053564
 C        -1.069666         1.789304         0.563574
 C        -0.815387         1.881785         3.014990
 C         0.421448         1.177765         2.307775
 H         0.688006         0.142793        -0.705709
 H        -2.160064        -0.538846         0.637175
 H        -1.124725        -0.793277         2.218885
 H        -4.084502         1.398195         1.445910
 H        -3.321348         2.959477         1.540478
 H        -0.615397         2.664055         0.178313
 H        -0.932344         2.894424         3.290709
 H        -0.943588         1.551638         4.068407
 H         1.354830         1.694931         2.288541
 H         0.677261         0.248831         2.904535
