19
Iteration:  1075charge 0 multiplicity 1
 O         0.551185        -0.307404         0.107548
 C        -0.277992         0.538442         0.987935
 C        -1.581596        -0.113149         1.588328
 C        -1.812279         1.433342         2.001793
 C        -3.014364         2.031675         1.277218
 O        -2.433086         1.863597        -0.002325
 C        -1.108071         1.834930         0.629472
 C        -0.843895         1.726359         3.139811
 C         0.482107         1.262446         2.264423
 H         1.048263         0.339463        -0.411524
 H        -2.201641        -0.612123         0.756762
 H        -1.303508        -0.912619         2.329341
 H        -4.014504         1.637635         1.458004
 H        -3.231833         3.119870         1.412504
 H        -0.723637         2.825303         0.593806
 H        -0.933149         2.808678         3.401096
 H        -0.995521         1.169078         4.019535
 H         1.124226         2.067416         2.137116
 H         1.044419         0.467332         2.863353
