19
Iteration:  4166
 O         0.670747        -0.168488         0.096947
 C        -0.299345         0.504426         0.996055
 C        -1.656195        -0.062176         1.426800
 C        -1.841483         1.388242         1.936132
 C        -2.968385         2.231641         1.293349
 O        -2.278098         2.083232        -0.022229
 C        -0.995859         1.861188         0.729716
 C        -0.923227         1.627014         3.139101
 C         0.297556         0.791355         2.423103
 H         0.206542        -0.103596        -0.801567
 H        -2.249100        -0.292581         0.544381
 H        -1.778002        -0.884258         2.159686
 H        -4.004147         1.708264         1.211603
 H        -3.000714         3.321410         1.789664
 H        -0.329302         2.851179         0.720578
 H        -0.810776         2.677868         3.278067
 H        -1.404323         1.227429         4.056203
 H         1.181064         1.292056         2.461618
 H         0.394665        -0.142137         2.965302
