19
Iteration:   681charge 0 multiplicity 1
 O         0.495386        -0.231352        -0.024271
 C        -0.235952         0.542203         1.017577
 C        -1.490470        -0.050066         1.608305
 C        -1.863748         1.406465         1.937054
 C        -3.104834         1.978340         1.287226
 O        -2.346276         1.980696         0.013796
 C        -1.051395         1.828919         0.754870
 C        -0.864803         1.734210         3.050333
 C         0.400576         1.078087         2.325127
 H         1.441643        -0.257852         0.291786
 H        -2.210952        -0.494091         0.878155
 H        -1.306429        -0.772512         2.426252
 H        -4.079856         1.396740         1.199567
 H        -3.407645         3.051797         1.459145
 H        -0.600551         2.902035         0.807591
 H        -0.611089         2.805282         3.040929
 H        -1.047560         1.518779         4.105258
 H         1.077407         1.846997         2.155775
 H         0.715779         0.181094         2.941597
