19
Iteration:  4476
 O         0.455933        -0.198537         0.064379
 C        -0.310110         0.480601         0.987734
 C        -1.572406        -0.145997         1.473320
 C        -1.849650         1.349897         1.923451
 C        -2.986876         2.233815         1.235924
 O        -2.240774         2.248796        -0.036532
 C        -0.971773         1.864739         0.724260
 C        -0.949178         1.470566         3.155342
 C         0.382914         0.991565         2.372325
 H         0.923465        -0.908128         0.612795
 H        -2.164572        -0.567883         0.649911
 H        -1.454518        -0.863753         2.348648
 H        -3.998304         1.720034         1.151696
 H        -3.296047         3.252380         1.654034
 H        -0.374981         2.762176         0.638656
 H        -0.885486         2.515746         3.676662
 H        -1.281493         0.902593         4.076609
 H         1.214328         1.765132         2.229290
 H         0.793469         0.076199         2.948021
