19
Iteration:  2342
 O         0.640053        -0.258956         0.118885
 C        -0.286541         0.556119         0.957488
 C        -1.599911        -0.035164         1.456699
 C        -1.783202         1.416874         1.967750
 C        -3.080951         1.916877         1.330272
 O        -2.406791         2.053663         0.034568
 C        -1.055899         1.878820         0.696888
 C        -0.763583         1.776125         3.089908
 C         0.340960         1.020555         2.402449
 H        -0.044465        -0.544150        -0.549355
 H        -2.295621        -0.244560         0.665741
 H        -1.532212        -0.831632         2.169450
 H        -3.893394         1.176691         1.089610
 H        -3.289792         2.911666         1.526768
 H        -0.532415         2.790691         0.364855
 H        -0.458242         2.824579         3.111619
 H        -1.049437         1.554572         4.095475
 H         1.233666         1.664226         2.293713
 H         0.717352         0.012563         2.877898
