19
Iteration:  2459charge 0 multiplicity 1
 O         0.564827        -0.181385         0.101213
 C        -0.314985         0.595157         0.974858
 C        -1.574729        -0.014609         1.537967
 C        -1.763500         1.522274         2.003217
 C        -3.090141         1.902278         1.254603
 O        -2.343170         1.994757         0.007015
 C        -1.049227         1.936596         0.691505
 C        -0.752122         1.721156         3.071500
 C         0.329582         0.865593         2.391497
 H         0.045913        -0.387393        -0.642640
 H        -2.285541        -0.296581         0.706060
 H        -1.514771        -0.807642         2.373714
 H        -3.651296         1.018963         1.102183
 H        -3.597591         2.886254         1.439822
 H        -0.323682         2.930118         0.715910
 H        -0.606250         2.830970         3.120099
 H        -0.993376         1.435851         4.149234
 H         1.285163         1.420070         2.221266
 H         0.514196         0.008756         2.895681
