19
Iteration:  4247charge 0 multiplicity 1
 O         0.493260        -0.134176         0.008882
 C        -0.338481         0.526772         0.991897
 C        -1.617744        -0.122409         1.492496
 C        -1.862910         1.343531         1.974731
 C        -2.861902         2.121242         1.257040
 O        -2.168590         2.190770        -0.040339
 C        -1.020311         1.898597         0.714797
 C        -0.993796         1.561429         3.146208
 C         0.330050         0.894037         2.382040
 H         0.503746        -1.081793         0.304305
 H        -2.304256        -0.382613         0.685719
 H        -1.431843        -0.875558         2.234741
 H        -4.077132         1.835488         1.138678
 H        -2.787799         3.203407         1.673154
 H        -0.425159         2.839341         1.055796
 H        -1.037986         2.663071         3.406970
 H        -1.305944         0.965996         3.996067
 H         1.287013         1.584665         2.333693
 H         0.604026         0.063945         3.063588
