19
Iteration:  2172
 O         0.501495        -0.162629         0.112145
 C        -0.233217         0.547216         0.985738
 C        -1.573976        -0.052601         1.565344
 C        -1.836373         1.439269         1.970667
 C        -3.056842         2.085486         1.280841
 O        -2.331197         1.857927        -0.018705
 C        -1.054226         1.882514         0.662716
 C        -0.852735         1.644771         3.144888
 C         0.451589         1.076840         2.332497
 H         0.086166        -0.307265        -0.806675
 H        -2.118659        -0.595945         0.759248
 H        -1.422153        -0.794676         2.424416
 H        -3.971038         1.530147         1.362378
 H        -3.188459         3.144639         1.385562
 H        -0.512779         2.808111         0.503463
 H        -0.607482         2.661749         3.462659
 H        -1.295376         1.053479         3.995916
 H         1.139803         2.078381         2.161587
 H         0.870847         0.202344         2.858440
