19
Iteration:  2698charge 0 multiplicity 1
 O         0.561105        -0.134286         0.143896
 C        -0.324304         0.590658         0.986383
 C        -1.597244        -0.137689         1.463467
 C        -1.843124         1.372797         1.980517
 C        -3.038797         1.999384         1.284796
 O        -2.314767         2.026274         0.001896
 C        -1.013950         1.865287         0.641819
 C        -0.809258         1.805993         3.139080
 C         0.335819         0.966207         2.377161
 H         0.016564        -0.613977        -0.457108
 H        -2.376319        -0.444984         0.749204
 H        -1.333274        -0.961210         2.197104
 H        -4.037810         1.451634         1.339327
 H        -3.143693         3.034226         1.567589
 H        -0.342519         2.651295         0.430882
 H        -0.500082         2.857953         3.233018
 H        -0.968109         1.238340         4.054818
 H         1.358940         1.470777         2.218251
 H         0.709746        -0.108429         2.770680
