19
Iteration:  3012charge 0 multiplicity 1
 O         0.552591        -0.042518         0.078496
 C        -0.356358         0.479135         1.013400
 C        -1.598885        -0.050712         1.593963
 C        -1.871947         1.427829         2.019889
 C        -2.991470         2.135161         1.224066
 O        -2.290936         1.901014        -0.071689
 C        -1.072512         1.757873         0.729023
 C        -0.783616         1.613403         3.172921
 C         0.369105         1.079186         2.291435
 H         0.141863        -0.590533        -0.587089
 H        -2.340700        -0.293136         0.814323
 H        -1.420903        -0.941142         2.258402
 H        -3.983589         1.821012         1.255859
 H        -2.910178         3.177816         1.466152
 H        -0.503374         2.604200         0.667567
 H        -0.632485         2.660087         3.507743
 H        -1.053239         0.930128         4.044904
 H         1.143232         1.898509         2.139871
 H         0.876352         0.087738         2.698923
