19
Iteration:  2573charge 0 multiplicity 1
 O         0.565864        -0.128667         0.175640
 C        -0.301489         0.636427         0.929359
 C        -1.651791         0.003072         1.599336
 C        -1.814630         1.448246         1.993546
 C        -3.090647         1.938510         1.210808
 O        -2.323135         2.013198         0.025414
 C        -1.010778         1.870184         0.723229
 C        -0.745548         1.691071         3.015114
 C         0.390714         0.868562         2.311478
 H         0.087920        -0.444601        -0.562521
 H        -2.389756        -0.370112         0.909103
 H        -1.441312        -0.688734         2.364217
 H        -3.868675         1.081105         1.112432
 H        -3.481801         2.875782         1.432956
 H        -0.583714         2.893592         0.855250
 H        -0.504106         2.760739         3.124009
 H        -0.980225         1.379758         4.024195
 H         1.310612         1.426308         2.256373
 H         0.497140        -0.141621         2.787244
