19
Iteration:  3051
 O         0.617758        -0.230962         0.223110
 C        -0.252903         0.575048         0.903149
 C        -1.547898        -0.007088         1.474150
 C        -1.768100         1.458833         1.955577
 C        -3.027393         2.073037         1.387937
 O        -2.468136         1.965477        -0.022139
 C        -1.076933         1.806760         0.624948
 C        -0.840515         1.643228         3.097534
 C         0.362738         1.001685         2.353229
 H         0.537085        -0.002942        -0.729731
 H        -2.212984        -0.231699         0.650254
 H        -1.657364        -0.739402         2.275344
 H        -4.095979         1.614369         1.330029
 H        -3.075312         3.139832         1.777323
 H        -0.482048         2.808718         0.358199
 H        -0.588147         2.654250         3.387970
 H        -1.122687         1.087327         3.956153
 H         1.287387         1.568674         2.307745
 H         0.662182         0.117198         2.828572
