19
Iteration:  1642charge 0 multiplicity 1
 O         0.748127        -0.175119         0.226171
 C        -0.313986         0.497554         0.963582
 C        -1.712201         0.004296         1.574796
 C        -1.754206         1.514563         1.936602
 C        -3.071535         2.075776         1.358492
 O        -2.450959         1.908136        -0.035336
 C        -1.073458         1.810122         0.582209
 C        -0.758867         1.677850         3.120239
 C         0.381069         0.993898         2.286362
 H         0.458989        -0.222937        -0.712677
 H        -2.469259        -0.275483         0.822234
 H        -1.659766        -0.671468         2.415601
 H        -3.917014         1.247153         1.354380
 H        -3.309292         3.087707         1.566422
 H        -0.488204         2.796927         0.441986
 H        -0.787692         2.772364         3.207537
 H        -1.242599         1.154356         4.002349
 H         1.304838         1.753886         2.129100
 H         0.833469         0.128814         2.768889
