19
Iteration:  4340
 O         0.524708        -0.170322         0.029579
 C        -0.241868         0.469675         1.042151
 C        -1.672470        -0.141493         1.446311
 C        -1.860128         1.383544         1.925716
 C        -2.986330         2.261934         1.252838
 O        -2.269184         2.204575        -0.046825
 C        -0.991529         1.809808         0.694973
 C        -0.911532         1.475707         3.180696
 C         0.341910         1.024425         2.441339
 H         1.021060        -0.945758         0.340603
 H        -2.220561        -0.439848         0.508057
 H        -1.615262        -1.009235         2.139138
 H        -3.949991         1.793550         1.307837
 H        -3.074117         3.298579         1.573600
 H        -0.491896         2.653687         0.757409
 H        -0.836067         2.487310         3.532673
 H        -1.160913         0.830570         4.078138
 H         1.146394         1.684047         2.111345
 H         0.789463         0.097919         3.022642
