19
Iteration:  3296
 O         0.564388        -0.092803         0.118074
 C        -0.265288         0.557417         1.029649
 C        -1.557045        -0.052511         1.456211
 C        -1.816967         1.393762         1.976900
 C        -3.008372         2.114489         1.368298
 O        -2.318421         1.871726        -0.005217
 C        -1.088110         1.856546         0.685668
 C        -0.858356         1.739552         3.020297
 C         0.367645         0.909317         2.376988
 H         0.088121        -0.539328        -0.565595
 H        -2.362014        -0.274502         0.697535
 H        -1.391175        -0.829377         2.249932
 H        -4.041224         1.569474         1.243588
 H        -3.068965         3.240949         1.473793
 H        -0.529789         2.840554         0.629790
 H        -0.685052         2.747475         3.160018
 H        -1.242871         1.377930         3.989709
 H         1.278298         1.595220         2.412563
 H         0.577067        -0.024562         2.849242
