19
Iteration:  3315
 O         0.676564        -0.202536         0.108705
 C        -0.299486         0.488005         0.950526
 C        -1.639032        -0.136652         1.499081
 C        -1.852995         1.382512         1.983104
 C        -3.061140         2.065627         1.274102
 O        -2.367807         2.031833         0.022175
 C        -0.982708         1.845018         0.733136
 C        -0.847372         1.771765         3.095310
 C         0.306896         1.047294         2.361842
 H         0.329595        -0.244884        -0.819027
 H        -2.333583        -0.355982         0.645249
 H        -1.604783        -0.921676         2.259860
 H        -3.979512         1.405270         1.331069
 H        -3.209579         2.940493         1.781809
 H        -0.403618         2.700061         0.756536
 H        -0.592958         2.899949         3.039077
 H        -0.784247         1.455327         4.143125
 H         1.286753         1.572760         1.964153
 H         0.697180         0.108326         2.954100
