19
Iteration:  2968
 O         0.563620        -0.193051         0.058221
 C        -0.230656         0.541655         0.972558
 C        -1.527818        -0.020947         1.532547
 C        -1.791882         1.509967         2.043159
 C        -3.072435         2.026797         1.268147
 O        -2.345060         1.991490        -0.002150
 C        -1.057051         1.809468         0.687838
 C        -0.878182         1.729381         3.123283
 C         0.393984         0.942696         2.357665
 H        -0.054978        -0.447867        -0.631584
 H        -2.236078        -0.145886         0.717959
 H        -1.515922        -0.834879         2.298404
 H        -3.776054         1.281749         1.251916
 H        -3.563075         2.988905         1.312597
 H        -0.565976         2.727191         0.660899
 H        -0.675164         2.792854         3.368874
 H        -1.183563         1.170036         4.095480
 H         1.275759         1.623342         2.088277
 H         0.608259        -0.005037         3.030855
