19
Iteration:  1476
 O         0.694285        -0.103290         0.166896
 C        -0.216765         0.552816         0.959593
 C        -1.640185        -0.126483         1.599527
 C        -1.811725         1.390559         2.038909
 C        -3.077839         2.153717         1.278670
 O        -2.388275         1.956885        -0.026381
 C        -1.132808         1.797834         0.621294
 C        -0.803840         1.684965         3.072390
 C         0.358550         0.985700         2.294916
 H         0.271467        -0.912233        -0.288313
 H        -2.322518        -0.368947         0.842157
 H        -1.556263        -0.803481         2.416837
 H        -4.215172         1.733151         1.177637
 H        -3.040099         3.241698         1.411501
 H        -0.578342         2.759672         0.609542
 H        -0.776883         2.705636         2.997288
 H        -0.915647         1.235511         4.063497
 H         1.251199         1.764518         2.236998
 H         0.720740         0.109903         2.814834
