19
Iteration:  4587
 O         0.446120        -0.066737         0.013777
 C        -0.325046         0.502724         1.043903
 C        -1.751835        -0.070179         1.432984
 C        -1.870275         1.413244         1.981233
 C        -2.904333         2.152612         1.224450
 O        -2.216940         2.091188        -0.119157
 C        -0.995630         1.884947         0.762144
 C        -0.850106         1.499928         3.201375
 C         0.406674         0.902864         2.450110
 H         0.859731        -0.853821         0.338619
 H        -2.372966        -0.261277         0.510715
 H        -1.769578        -0.903139         2.162164
 H        -3.903606         1.596942         1.134544
 H        -3.001186         3.246727         1.534499
 H        -0.358369         2.737953         0.687649
 H        -0.564954         2.551208         3.703468
 H        -1.321432         0.873097         4.032257
 H         1.263590         1.659901         2.391375
 H         0.820935        -0.071437         2.938427
