19
Iteration:   897
 O         0.573527        -0.236260         0.096721
 C        -0.207155         0.536345         0.955030
 C        -1.561379        -0.063210         1.634306
 C        -1.814119         1.400582         1.963154
 C        -3.081971         1.994717         1.364609
 O        -2.453410         1.927761        -0.005354
 C        -1.113780         1.861343         0.674087
 C        -0.838480         1.780952         2.985835
 C         0.413055         1.095143         2.246402
 H         1.324347        -0.281986         0.664143
 H        -2.048759        -0.337959         0.715097
 H        -1.374214        -0.952438         2.376512
 H        -3.974102         1.341248         1.521280
 H        -3.283976         3.103363         1.539837
 H        -0.805823         2.905927         0.671364
 H        -0.545412         2.808342         3.056083
 H        -0.970159         1.431783         4.071947
 H         1.213829         1.853853         2.087554
 H         0.814250         0.179094         2.857296
