19
Iteration:   759
 O         0.599600        -0.111414         0.115228
 C        -0.314215         0.524238         1.032689
 C        -1.613106        -0.143711         1.621073
 C        -1.830200         1.399478         1.946098
 C        -3.046049         2.053200         1.288926
 O        -2.411447         1.977141        -0.034756
 C        -1.120733         1.803248         0.634055
 C        -0.738371         1.700016         3.092165
 C         0.367590         1.036745         2.270147
 H         1.430689        -0.414990         0.604018
 H        -2.289836        -0.360321         0.860518
 H        -1.569638        -0.738964         2.505941
 H        -4.031470         1.507981         1.240845
 H        -3.205248         3.128907         1.592087
 H        -0.570451         2.747957         0.259782
 H        -0.524502         2.800028         3.168711
 H        -0.961902         1.267518         4.058129
 H         1.047328         1.849661         1.980943
 H         1.032436         0.270270         2.727506
