19
Iteration:   957
 O         0.463033        -0.129330        -0.004245
 C        -0.236513         0.584546         0.949415
 C        -1.513687        -0.067039         1.627695
 C        -1.841374         1.459435         1.967780
 C        -3.096056         2.046833         1.253154
 O        -2.400953         1.742937         0.020117
 C        -1.038339         1.827758         0.688984
 C        -0.856518         1.750102         3.119406
 C         0.463309         1.150714         2.326679
 H         0.709407        -0.990238         0.329542
 H        -2.106026        -0.665499         0.904868
 H        -1.212814        -0.776013         2.337361
 H        -4.127849         1.729875         1.422449
 H        -3.146709         3.115737         1.362408
 H        -0.419661         2.731119         0.605509
 H        -0.727789         2.833636         3.411049
 H        -0.978878         1.208530         4.026308
 H         1.236357         1.926827         2.058854
 H         1.036473         0.428259         2.994052
