19
Iteration:  2784charge 0 multiplicity 1
 O         0.661205        -0.248399         0.167130
 C        -0.227566         0.485154         0.971537
 C        -1.596420        -0.095007         1.508713
 C        -1.853646         1.409355         1.939794
 C        -3.064740         2.312573         1.268938
 O        -2.399158         1.900868         0.066069
 C        -1.115700         1.840604         0.692281
 C        -0.894286         1.521911         3.109834
 C         0.447911         1.125875         2.291126
 H         0.618371         0.044696        -0.723978
 H        -2.161342        -0.274553         0.631882
 H        -1.692167        -0.761971         2.353925
 H        -4.071542         1.684874         1.404213
 H        -2.998159         3.448681         1.252206
 H        -0.570743         2.905334         0.573039
 H        -0.815418         2.581204         3.378142
 H        -0.997662         0.904050         4.014619
 H         1.016514         1.961903         2.140792
 H         0.968186         0.241020         2.775891
