19
Iteration:   666charge 0 multiplicity 1
 O         0.557976        -0.172604         0.133186
 C        -0.343947         0.532229         0.890850
 C        -1.589279        -0.131211         1.606737
 C        -1.878007         1.380112         2.083647
 C        -3.134616         1.991403         1.186867
 O        -2.317615         2.025737        -0.024677
 C        -1.144633         1.871606         0.729036
 C        -0.729064         1.755440         3.077105
 C         0.413988         1.031507         2.259892
 H         1.449330        -0.057017         0.392773
 H        -2.352213        -0.613117         0.930210
 H        -1.289859        -0.740046         2.499564
 H        -3.933736         1.260737         1.088975
 H        -3.513255         2.924033         1.614692
 H        -0.394088         2.760264         0.643507
 H        -0.679601         2.839014         3.191116
 H        -0.805060         1.269371         4.063632
 H         1.285084         1.706090         1.969498
 H         1.078492         0.219044         2.767419
