19
Iteration:  4814charge 0 multiplicity 1
 O         0.517041        -0.147822         0.146279
 C        -0.303739         0.629244         1.002434
 C        -1.652679         0.060002         1.401572
 C        -1.818635         1.469220         1.902117
 C        -2.980038         2.171642         1.305715
 O        -2.236964         1.971626        -0.006376
 C        -1.033769         1.914787         0.694488
 C        -0.880792         1.505457         3.135286
 C         0.327413         0.796508         2.330037
 H         1.047375        -0.719897         0.723649
 H        -2.226358        -0.245306         0.477929
 H        -1.743093        -0.761450         2.275820
 H        -3.992485         1.753656         1.374264
 H        -2.861637         3.359530         1.512389
 H        -0.545552         2.968796         0.583080
 H        -0.714102         2.545889         3.625595
 H        -1.266819         0.642408         3.695431
 H         1.288459         1.358628         2.352749
 H         0.474401        -0.247917         2.786717
