19
Iteration:    60charge 0 multiplicity 1
 O         0.571448        -0.263151         0.155298
 C        -0.256794         0.590165         0.976785
 C        -1.517322        -0.073766         1.454708
 C        -1.818646         1.430662         1.974927
 C        -3.105643         1.926619         1.412845
 O        -2.419753         1.799622         0.087318
 C        -1.057135         1.742351         0.581565
 C        -0.855544         1.896588         3.022513
 C         0.435450         1.278111         2.328197
 H         1.060364         0.291034        -0.547737
 H        -2.115644        -0.402414         0.541619
 H        -1.590157        -0.896083         2.236258
 H        -4.033010         1.263365         1.512896
 H        -3.390833         2.945533         1.723118
 H        -0.422054         2.683226         0.254354
 H        -1.061370         2.934254         3.347860
 H        -0.939886         1.171493         3.950129
 H         1.303124         1.894798         2.016434
 H         0.702193         0.424072         2.981917
