19
Iteration:  4837
 O         0.533862        -0.098101        -0.034636
 C        -0.319450         0.517397         1.052945
 C        -1.693556        -0.046566         1.453978
 C        -1.793105         1.443371         1.971278
 C        -3.066554         2.190840         1.115137
 O        -2.257671         2.058059        -0.043331
 C        -0.976880         1.874979         0.819561
 C        -0.815959         1.541598         3.235628
 C         0.368467         0.826892         2.464516
 H         0.455621        -1.073596         0.228739
 H        -2.377556        -0.176554         0.601799
 H        -1.723684        -0.969252         2.221339
 H        -4.002930         1.616625         0.990087
 H        -3.254769         3.360577         1.311508
 H        -0.357374         2.839868         0.728017
 H        -0.555354         2.637660         3.221279
 H        -1.176378         1.071189         4.129716
 H         1.166149         1.620036         2.366930
 H         0.809488        -0.069914         2.998455
