19
Iteration:  1661
 O         0.588469        -0.236579         0.189201
 C        -0.253166         0.518609         0.994595
 C        -1.571041        -0.035546         1.561305
 C        -1.870357         1.430308         1.969944
 C        -3.026987         2.075999         1.304413
 O        -2.378014         1.891194         0.005752
 C        -1.049869         1.835052         0.658372
 C        -0.886826         1.672375         3.068135
 C         0.416366         1.133748         2.304042
 H         0.252806        -0.062390        -0.756579
 H        -2.246637        -0.289201         0.748369
 H        -1.512473        -0.732593         2.360890
 H        -4.056662         1.714620         1.302031
 H        -3.093703         3.205343         1.381350
 H        -0.576162         2.766588         0.253101
 H        -0.485051         2.644250         3.416595
 H        -0.987414         0.896477         3.880255
 H         1.179048         1.876510         2.131552
 H         0.895666         0.323114         2.753822
