19
Iteration:  1612
 O         0.688197        -0.110288         0.197649
 C        -0.322896         0.539430         0.991524
 C        -1.611380        -0.058235         1.565159
 C        -1.814763         1.425824         1.963263
 C        -3.033213         2.093742         1.282705
 O        -2.453313         1.901826        -0.002165
 C        -1.069337         1.820021         0.669289
 C        -0.739045         1.761071         3.054074
 C         0.380286         0.950979         2.304948
 H         0.108449        -0.572999        -0.388105
 H        -2.237477        -0.355643         0.689342
 H        -1.395389        -0.808242         2.374092
 H        -4.014718         1.645130         1.140789
 H        -3.325705         3.164920         1.533095
 H        -0.651886         2.777246         0.485899
 H        -0.746390         2.835392         2.942973
 H        -1.043413         1.407350         4.013830
 H         1.395988         1.357484         2.302908
 H         0.516429        -0.116963         2.723765
