19
Iteration:  1210
 O         0.571836        -0.212540         0.154183
 C        -0.269902         0.580015         0.987678
 C        -1.635059        -0.063061         1.567396
 C        -1.868108         1.420767         1.960245
 C        -3.049523         2.120516         1.311514
 O        -2.423798         1.843194        -0.053419
 C        -1.089289         1.822873         0.672372
 C        -0.778279         1.614537         3.066502
 C         0.440166         1.151768         2.235864
 H         1.466970         0.091050         0.489945
 H        -2.248496        -0.588028         0.843570
 H        -1.471470        -0.696947         2.469493
 H        -4.047643         1.533134         1.402434
 H        -3.187066         3.135711         1.777603
 H        -0.643199         2.759751         0.416846
 H        -0.684306         2.650222         3.355694
 H        -0.999367         1.134433         3.983440
 H         1.108110         1.982011         2.165313
 H         1.163339         0.520701         2.768008
