19
Iteration:  4649charge 0 multiplicity 1
 O         0.578722        -0.117944         0.136363
 C        -0.283413         0.433028         1.016800
 C        -1.650547        -0.074547         1.377968
 C        -1.856897         1.402491         1.879658
 C        -2.951358         2.209070         1.314053
 O        -2.312297         2.233429        -0.010257
 C        -0.996410         1.786609         0.671923
 C        -0.926289         1.514871         3.123926
 C         0.371969         0.920700         2.456969
 H         0.410428        -1.016366        -0.115225
 H        -2.232004        -0.375720         0.437550
 H        -1.858854        -0.979816         2.095305
 H        -3.922320         1.770039         1.311954
 H        -3.024200         3.181308         1.806722
 H        -0.226537         2.652843         0.609042
 H        -0.667442         2.584099         3.278751
 H        -1.312236         0.855106         3.891077
 H         1.263838         1.596418         2.444630
 H         0.658810        -0.017649         3.036921
