19
Iteration:  2858charge 0 multiplicity 1
 O         0.535757        -0.185086         0.026391
 C        -0.282326         0.661356         0.973308
 C        -1.599269        -0.057999         1.502389
 C        -1.821733         1.516782         2.035064
 C        -3.013689         2.009699         1.201344
 O        -2.319778         1.905013        -0.038289
 C        -1.087743         1.913317         0.762263
 C        -0.817404         1.651350         3.159971
 C         0.428530         0.958492         2.426602
 H        -0.113397        -0.844252        -0.339992
 H        -2.293117        -0.285318         0.709343
 H        -1.421816        -0.908577         2.191535
 H        -3.849954         1.374221         1.191061
 H        -3.315930         3.094504         1.353885
 H        -0.635975         2.932265         0.680801
 H        -0.502175         2.717349         3.265137
 H        -1.242070         1.342117         4.181144
 H         1.309525         1.672127         2.409361
 H         0.771760        -0.055974         2.727739
