19
Iteration:   580charge 0 multiplicity 1
 O         0.522821        -0.096433         0.077111
 C        -0.320675         0.505155         1.030983
 C        -1.599808        -0.081292         1.674189
 C        -1.837060         1.407647         1.964709
 C        -3.067796         2.047962         1.259122
 O        -2.347252         1.854408        -0.033333
 C        -1.030531         1.824324         0.683990
 C        -0.795776         1.687735         3.074874
 C         0.425351         1.080403         2.330032
 H         0.843036         0.644242        -0.465682
 H        -2.090343        -0.458844         0.752331
 H        -1.799826        -0.836259         2.480875
 H        -3.969187         1.453756         1.052916
 H        -3.193364         3.171997         1.481042
 H        -0.456577         2.825782         0.579897
 H        -0.717999         2.748562         3.245745
 H        -0.952590         1.145332         4.004827
 H         1.145462         1.777688         2.065113
 H         0.928832         0.119836         2.802030
