19
Iteration:   989
 O         0.520796         0.015617         0.006324
 C        -0.278501         0.546597         0.991445
 C        -1.594185        -0.090090         1.642627
 C        -1.817659         1.435933         1.967981
 C        -3.007012         2.039113         1.324519
 O        -2.432251         1.694456        -0.039283
 C        -1.063832         1.764233         0.677332
 C        -0.791154         1.849716         3.055638
 C         0.452714         1.063888         2.347695
 H         0.670062        -0.987636         0.130536
 H        -2.287649        -0.436874         0.812385
 H        -1.382573        -0.791171         2.460061
 H        -4.074769         1.689232         1.520612
 H        -2.838662         3.125742         1.378637
 H        -0.561043         2.700617         0.604250
 H        -0.781478         2.970948         3.223787
 H        -1.002720         1.373446         3.950177
 H         1.207080         1.851398         2.137700
 H         0.661205         0.218824         3.126098
