19
Iteration:  4317charge 0 multiplicity 1
 O         0.560745        -0.148504         0.055588
 C        -0.307142         0.568696         0.956703
 C        -1.634767         0.000195         1.461803
 C        -1.839576         1.483368         1.966961
 C        -2.983399         2.241221         1.236847
 O        -2.253050         2.008744         0.004156
 C        -0.997594         1.950792         0.720994
 C        -0.955587         1.468692         3.134963
 C         0.320429         0.791611         2.406880
 H         1.165553        -0.735786         0.596922
 H        -2.331196        -0.306806         0.654617
 H        -1.519278        -0.761110         2.269563
 H        -4.015335         1.784447         1.273040
 H        -3.027881         3.282860         1.533514
 H        -0.483892         2.782384         0.493626
 H        -0.637966         2.447183         3.503349
 H        -1.351735         0.896376         4.011431
 H         1.210653         1.469363         2.250969
 H         0.672983        -0.279072         2.740474
