19
Iteration:    52
 O         0.580978        -0.282738         0.103426
 C        -0.218663         0.509070         0.970777
 C        -1.556344        -0.051902         1.542160
 C        -1.777485         1.413873         1.967242
 C        -3.091814         1.927976         1.363649
 O        -2.444532         1.809709         0.053776
 C        -1.090073         1.799499         0.628016
 C        -0.874214         1.821988         3.060613
 C         0.417418         1.308029         2.316621
 H         1.235364         0.368116        -0.303653
 H        -2.169076        -0.180474         0.685236
 H        -1.650890        -0.894828         2.241993
 H        -3.869548         1.192055         1.470180
 H        -3.349390         3.000285         1.632023
 H        -0.530926         2.760984         0.420294
 H        -0.816926         2.968332         3.195077
 H        -1.058376         1.270512         3.996174
 H         1.145944         2.103618         1.958487
 H         1.003820         0.612626         2.914550
