19
Iteration:   711
 O         0.428643        -0.113782         0.022936
 C        -0.310377         0.590705         0.986583
 C        -1.565892        -0.017011         1.510953
 C        -1.761228         1.481365         1.972157
 C        -2.993873         2.030762         1.317102
 O        -2.422233         1.788072        -0.051731
 C        -1.004974         1.766150         0.593165
 C        -0.838081         1.643776         3.166483
 C         0.405929         1.115289         2.466728
 H         1.311309        -0.216464         0.331807
 H        -2.274277        -0.225567         0.633984
 H        -1.264158        -0.718284         2.335549
 H        -3.982393         1.581164         1.398137
 H        -3.188796         3.108585         1.330542
 H        -0.510870         2.798165         0.381341
 H        -0.634347         2.691555         3.352814
 H        -1.060492         1.186342         4.142869
 H         1.183067         1.864416         2.265371
 H         0.963191         0.192979         3.035030
