19
Iteration:  1927charge 0 multiplicity 1
 O         0.566378        -0.249478         0.108336
 C        -0.254195         0.607305         0.955008
 C        -1.529766        -0.026957         1.513932
 C        -1.830833         1.480339         1.935978
 C        -3.032353         2.030215         1.336645
 O        -2.417468         1.889639         0.019720
 C        -1.008430         1.840339         0.643809
 C        -0.861997         1.588922         3.135252
 C         0.392333         1.190201         2.352925
 H         0.038256        -0.924488        -0.434257
 H        -2.090743        -0.384250         0.687411
 H        -1.667975        -0.656122         2.348953
 H        -3.950586         1.544085         1.160467
 H        -3.139718         3.172441         1.389522
 H        -0.580616         2.851455         0.481886
 H        -0.820720         2.568727         3.668576
 H        -1.029377         0.913178         4.055976
 H         1.105364         2.109968         2.243008
 H         1.092576         0.426047         2.779891
