19
Iteration:  4366
 O         0.546341        -0.127119         0.098526
 C        -0.324472         0.500953         0.945413
 C        -1.741453        -0.073655         1.436766
 C        -1.833833         1.379800         1.952384
 C        -2.968840         2.112174         1.274487
 O        -2.151283         2.148137         0.058901
 C        -0.890744         1.815549         0.776172
 C        -0.976556         1.553272         3.120285
 C         0.279249         0.974300         2.261606
 H         0.745943        -0.995166         0.438443
 H        -2.447817        -0.284518         0.643898
 H        -1.638996        -0.950860         2.099003
 H        -3.937098         1.656431         1.291711
 H        -3.173840         3.133518         1.634506
 H        -0.379833         2.796032         0.821908
 H        -0.793832         2.612804         3.466169
 H        -1.277281         1.026751         4.033099
 H         1.087061         1.669503         1.932429
 H         0.814041         0.249116         2.822347
