19
Iteration:  2137
 O         0.658709         0.024953         0.164030
 C        -0.329261         0.504662         0.966814
 C        -1.687076        -0.034942         1.585095
 C        -1.843938         1.542267         1.954150
 C        -3.066340         2.163982         1.226273
 O        -2.387333         1.745706        -0.005762
 C        -1.072210         1.801418         0.611344
 C        -0.701720         1.612537         3.213101
 C         0.388494         0.943503         2.289788
 H         0.203997        -0.284773        -0.707061
 H        -2.443954        -0.298061         0.858569
 H        -1.601698        -0.724097         2.404512
 H        -3.920615         1.633572         1.441106
 H        -3.146335         3.233395         1.215351
 H        -0.603657         2.640703         0.266107
 H        -0.493116         2.633871         3.547219
 H        -1.071684         1.075020         4.112582
 H         1.322161         1.648697         2.200536
 H         0.993457         0.099671         2.884473
