19
Iteration:  2307
 O         0.528458        -0.063087         0.082997
 C        -0.323248         0.535106         1.047945
 C        -1.604582        -0.086718         1.714301
 C        -1.871528         1.394695         1.982256
 C        -3.034856         2.030060         1.160144
 O        -2.283975         1.968166        -0.045882
 C        -1.081705         1.839549         0.740283
 C        -0.742748         1.648574         3.071006
 C         0.407516         1.009237         2.314360
 H         0.027856        -0.193412        -0.748858
 H        -2.252621        -0.603319         0.958778
 H        -1.471431        -0.685563         2.657448
 H        -4.045478         1.534786         1.222193
 H        -3.298225         2.968362         1.556146
 H        -0.465384         2.704106         0.576561
 H        -0.521329         2.716504         3.213612
 H        -1.127707         1.119932         3.955632
 H         1.208747         1.819638         1.901692
 H         0.885313         0.084681         2.663965
