19
Iteration:  3631charge 0 multiplicity 1
 O         0.556918        -0.182396         0.101404
 C        -0.311514         0.498207         0.989618
 C        -1.618227        -0.108436         1.508906
 C        -1.852870         1.350981         1.961014
 C        -2.980245         2.177173         1.286308
 O        -2.354934         2.094511        -0.049600
 C        -1.091676         1.816522         0.689737
 C        -0.843851         1.557852         3.102323
 C         0.424729         1.058036         2.336780
 H         1.395317        -0.377404         0.496599
 H        -2.306000        -0.314276         0.722099
 H        -1.614077        -0.920720         2.223802
 H        -3.933465         1.835064         1.441181
 H        -2.963126         3.263600         1.632246
 H        -0.507810         2.755434         0.788881
 H        -1.003551         2.601502         3.461827
 H        -1.255123         0.940736         3.890573
 H         1.238388         1.826003         2.217130
 H         0.831935        -0.015603         2.703926
