19
Iteration:  2650
 O         0.626335        -0.130436         0.256714
 C        -0.363328         0.495952         0.998085
 C        -1.616824        -0.023879         1.537044
 C        -1.819744         1.440077         1.997501
 C        -3.010376         2.254429         1.241973
 O        -2.457502         1.915313        -0.083885
 C        -1.102063         1.801883         0.636059
 C        -0.755174         1.436590         3.210841
 C         0.458298         1.091942         2.265057
 H         0.469640        -0.191939        -0.731086
 H        -2.290860        -0.268116         0.716494
 H        -1.581222        -0.748462         2.292774
 H        -4.119379         1.780151         1.144566
 H        -3.034582         3.337464         1.478419
 H        -0.377669         2.709415         0.401823
 H        -0.613251         2.433808         3.609232
 H        -1.049852         0.626510         3.840913
 H         1.144015         1.850353         1.991661
 H         1.093967         0.337265         2.770882
