19
Iteration:  4271charge 0 multiplicity 1
 O         0.558246        -0.007982        -0.001444
 C        -0.280398         0.449201         1.018855
 C        -1.694025        -0.109344         1.467783
 C        -1.877614         1.466681         1.988182
 C        -3.032600         2.253041         1.213557
 O        -2.208894         2.095574         0.014104
 C        -0.969635         1.813813         0.723520
 C        -0.883520         1.584711         3.113375
 C         0.291076         0.722845         2.414666
 H         1.071176        -0.834856         0.247701
 H        -2.364042        -0.396273         0.680433
 H        -1.624367        -0.824735         2.307805
 H        -4.077837         1.682014         1.053621
 H        -3.230328         3.332116         1.447658
 H        -0.356779         2.686339         0.800706
 H        -0.514440         2.653619         3.184361
 H        -1.072409         1.230648         4.124393
 H         1.174946         1.489492         2.500251
 H         0.599565        -0.190988         3.075138
