19
Iteration:  2401
 O         0.665107        -0.057763         0.128739
 C        -0.372697         0.473440         0.972210
 C        -1.694048        -0.091672         1.572597
 C        -1.807323         1.480446         2.001984
 C        -2.965844         2.156252         1.309117
 O        -2.348220         1.877728        -0.041154
 C        -1.082985         1.717959         0.671411
 C        -0.817202         1.569211         3.197154
 C         0.371626         1.125901         2.253450
 H         0.313427        -0.257446        -0.805690
 H        -2.424759        -0.434680         0.834416
 H        -1.668759        -0.768592         2.418481
 H        -4.016269         2.028253         1.309708
 H        -2.971539         3.297195         1.460554
 H        -0.186818         2.510772         0.428943
 H        -0.748952         2.579837         3.640893
 H        -1.064333         0.788545         3.941975
 H         0.899402         1.920461         1.868316
 H         1.057074         0.425133         2.682529
