19
Iteration:  2783charge 0 multiplicity 1
 O         0.652636        -0.244343         0.169161
 C        -0.220745         0.487553         0.978159
 C        -1.599342        -0.096475         1.512561
 C        -1.845681         1.414673         1.933128
 C        -3.064823         2.311394         1.271034
 O        -2.398558         1.892865         0.063294
 C        -1.118081         1.847585         0.687372
 C        -0.901811         1.514949         3.118252
 C         0.453128         1.119537         2.291189
 H         0.628562         0.037721        -0.757517
 H        -2.135674        -0.278671         0.624675
 H        -1.700804        -0.763326         2.344792
 H        -4.057677         1.698076         1.382673
 H        -3.007147         3.490808         1.267444
 H        -0.572522         2.924982         0.559784
 H        -0.829612         2.585452         3.369751
 H        -0.977080         0.898023         4.039238
 H         1.015497         1.957348         2.111009
 H         0.974443         0.262358         2.757790
