19
Iteration:  4315
 O         0.562873        -0.141943         0.056896
 C        -0.296700         0.582506         0.957695
 C        -1.669469         0.020009         1.467064
 C        -1.841209         1.473200         1.962561
 C        -2.976039         2.233946         1.240191
 O        -2.240974         1.996098         0.012389
 C        -1.003536         1.950471         0.699521
 C        -0.943874         1.449728         3.142520
 C         0.314992         0.786409         2.415048
 H         1.176247        -0.718119         0.596539
 H        -2.338554        -0.303162         0.687835
 H        -1.519421        -0.743625         2.243113
 H        -4.059931         1.709335         1.296281
 H        -3.008368         3.320423         1.510450
 H        -0.434737         2.914051         0.457457
 H        -0.639815         2.484461         3.429125
 H        -1.330275         0.923350         4.013072
 H         1.216122         1.442716         2.213140
 H         0.612030        -0.254017         2.735638
