19
Iteration:  1691charge 0 multiplicity 1
 O         0.496385        -0.146652         0.059816
 C        -0.281111         0.519217         1.031434
 C        -1.567964        -0.098516         1.635825
 C        -1.884788         1.377349         2.019426
 C        -3.004070         2.051468         1.198100
 O        -2.293345         1.899676        -0.065365
 C        -1.059278         1.852192         0.735111
 C        -0.857997         1.683410         3.138668
 C         0.435085         1.155250         2.296948
 H        -0.150028        -0.468156        -0.574890
 H        -2.317341        -0.518628         0.928302
 H        -1.454473        -0.825412         2.511510
 H        -3.913597         1.542850         1.127907
 H        -2.914700         3.194299         1.346221
 H        -0.558121         2.793555         0.605906
 H        -0.617629         2.730098         3.444842
 H        -1.053236         1.086829         4.016296
 H         1.100490         1.984319         2.128434
 H         1.106466         0.335423         2.799381
