19
Iteration:  3130
 O         0.489080        -0.115530        -0.005432
 C        -0.263294         0.577443         0.987779
 C        -1.530525        -0.029161         1.592672
 C        -1.840226         1.401220         1.999045
 C        -2.958761         2.170815         1.241308
 O        -2.294016         1.836503        -0.023965
 C        -1.048408         1.836304         0.659378
 C        -0.910724         1.615598         3.170737
 C         0.363217         1.031469         2.399405
 H        -0.232437        -0.712794        -0.313925
 H        -2.006024        -0.629828         0.815220
 H        -1.240122        -0.744971         2.412231
 H        -4.094123         1.801384         1.320102
 H        -2.885938         3.322681         1.369531
 H        -0.546186         2.976804         0.617481
 H        -0.773956         2.605699         3.488328
 H        -1.117151         0.986295         4.022957
 H         1.112352         1.825666         2.223333
 H         0.763887         0.178514         2.819001
