19
Iteration:  4639
 O         0.568979        -0.194935         0.133226
 C        -0.278572         0.434295         0.998145
 C        -1.672806        -0.058788         1.370349
 C        -1.723898         1.382122         1.885862
 C        -2.992594         2.103146         1.298588
 O        -2.315273         2.276996         0.001258
 C        -0.983043         1.893575         0.639956
 C        -0.890397         1.533292         3.134096
 C         0.297938         0.940780         2.451863
 H         0.531092        -1.133941         0.018615
 H        -2.431257        -0.072124         0.488811
 H        -1.739721        -0.833290         2.273168
 H        -3.945025         1.634236         1.212430
 H        -3.085981         3.121920         1.649189
 H        -0.293474         2.785146         0.627007
 H        -0.954508         2.448478         3.814894
 H        -1.219611         0.876089         3.961256
 H         1.237161         1.582087         2.356540
 H         0.601982        -0.059164         3.005823
