19
Iteration:  2089charge 0 multiplicity 1
 O         0.593540        -0.270929         0.155165
 C        -0.263672         0.486790         0.971507
 C        -1.481586        -0.090660         1.518317
 C        -1.861608         1.380272         2.011491
 C        -3.070075         2.002482         1.328195
 O        -2.390420         2.079156         0.010876
 C        -1.103733         1.848279         0.725389
 C        -0.810197         1.766049         3.013602
 C         0.362796         1.106330         2.317780
 H         0.162677        -0.489582        -0.628942
 H        -2.032838        -0.504172         0.653654
 H        -1.255292        -0.898867         2.229459
 H        -3.952012         1.379123         0.916970
 H        -3.285368         3.060803         1.627038
 H        -0.462417         2.721454         0.744666
 H        -0.600109         2.851756         3.152052
 H        -1.300930         1.449989         3.925241
 H         1.186427         1.697983         2.216333
 H         0.861196         0.196941         2.790306
