19
Iteration:  4763
 O         0.526296        -0.223250         0.174194
 C        -0.292331         0.454347         1.014803
 C        -1.689274        -0.124992         1.447035
 C        -1.911703         1.345993         1.903373
 C        -2.972050         2.221067         1.271946
 O        -2.211002         2.205568         0.000985
 C        -1.011495         1.879749         0.783799
 C        -0.921358         1.509110         3.034084
 C         0.387069         0.932679         2.327826
 H         1.191269         0.370111        -0.139806
 H        -2.292100        -0.338472         0.592532
 H        -1.762105        -0.942005         2.177915
 H        -3.962769         1.751615         1.216592
 H        -3.054302         3.169795         1.689765
 H        -0.534415         2.885696         0.896877
 H        -0.771817         2.549075         3.244539
 H        -1.125097         0.832185         3.842657
 H         1.238580         1.662481         2.262231
 H         0.794955         0.117004         2.930713
