19
Iteration:  2252
 O         0.655428        -0.151448         0.179730
 C        -0.241073         0.555825         0.991863
 C        -1.633579        -0.019074         1.495047
 C        -1.782296         1.455932         1.953093
 C        -3.073751         2.130808         1.357766
 O        -2.435441         1.865335        -0.021842
 C        -1.075512         1.852454         0.612738
 C        -0.816948         1.614550         3.115664
 C         0.404561         1.025132         2.325583
 H         0.143989        -0.387219        -0.668753
 H        -2.492734        -0.313254         0.823550
 H        -1.418824        -0.801824         2.283315
 H        -3.992754         1.512955         1.641051
 H        -3.142183         3.199092         1.566497
 H        -0.489834         2.762014         0.284902
 H        -0.729541         2.685888         3.395502
 H        -1.218967         1.105416         4.022363
 H         1.377768         1.652425         2.084320
 H         0.903762         0.164147         2.734891
