19
Iteration:  4053
 O         0.672675        -0.132480         0.119056
 C        -0.284524         0.512447         0.939479
 C        -1.766712        -0.108532         1.463691
 C        -1.898831         1.312661         1.943246
 C        -3.011665         2.222676         1.262715
 O        -2.252095         2.155684         0.010842
 C        -1.054135         1.887689         0.750353
 C        -0.911428         1.539431         3.079660
 C         0.400130         0.858112         2.314231
 H         1.377523        -0.607847         0.643422
 H        -2.435518        -0.493795         0.639206
 H        -1.862535        -0.781230         2.340218
 H        -3.992968         1.812985         1.139368
 H        -2.915628         3.397794         1.657007
 H        -0.340919         2.872813         0.816912
 H        -0.802861         2.652526         3.393589
 H        -1.273991         1.079235         3.997219
 H         1.162357         1.485122         2.260121
 H         0.518019        -0.086951         2.897146
