19
Iteration:  2296
 O         0.502512        -0.054200         0.083512
 C        -0.333525         0.526754         0.989737
 C        -1.575601        -0.075310         1.671962
 C        -1.900421         1.426170         2.008015
 C        -3.048315         2.117283         1.232100
 O        -2.309883         1.881781        -0.104950
 C        -1.045926         1.801437         0.671998
 C        -0.782676         1.603118         3.174571
 C         0.435978         1.021046         2.307521
 H         0.074572        -0.104663        -0.848462
 H        -2.271041        -0.605341         0.953510
 H        -1.453395        -0.733879         2.582291
 H        -4.035733         1.577092         1.072566
 H        -2.962993         3.167740         1.385845
 H        -0.466036         2.730368         0.730616
 H        -0.688439         2.671662         3.452762
 H        -0.751843         1.120885         4.183000
 H         1.258886         1.938445         2.150767
 H         1.050957         0.337795         2.918544
