19
Iteration:  1449
 O         0.553869        -0.131061         0.192339
 C        -0.295058         0.511742         1.032529
 C        -1.627417        -0.044575         1.536133
 C        -1.773970         1.568270         2.016899
 C        -3.114996         2.052734         1.258479
 O        -2.295993         1.863951        -0.027032
 C        -1.021307         1.811531         0.643872
 C        -0.823072         1.595242         3.124394
 C         0.406925         1.079110         2.257699
 H         0.159212        -0.174542        -0.729327
 H        -2.497461        -0.304364         0.846710
 H        -1.515762        -0.722209         2.434323
 H        -3.977397         1.482856         1.227278
 H        -3.478645         3.101641         1.361421
 H        -0.371151         2.715118         0.434795
 H        -0.725930         2.673834         3.570556
 H        -0.994367         0.778119         3.839850
 H         1.052007         1.833534         1.917255
 H         1.049784         0.389407         2.929493
