19
Iteration:  4727
 O         0.499791        -0.289609         0.024220
 C        -0.239704         0.556179         0.971440
 C        -1.660176         0.029270         1.443354
 C        -1.808058         1.470212         1.974195
 C        -3.024090         2.083779         1.205935
 O        -2.225845         2.132074        -0.015976
 C        -0.952603         1.900922         0.774066
 C        -0.932814         1.561787         3.177929
 C         0.342810         0.863632         2.461664
 H         0.601212         0.312931        -0.694532
 H        -2.401902        -0.093482         0.571161
 H        -1.678312        -0.898972         2.185297
 H        -3.780824         1.324018         1.193237
 H        -3.412952         3.104175         1.393407
 H        -0.226544         2.896362         0.678750
 H        -0.838604         2.491901         3.827092
 H        -1.254476         0.827401         3.956843
 H         1.293934         1.481512         2.509994
 H         0.450359        -0.121605         3.052927
