19
Iteration:  3490
 O         0.594766        -0.328712         0.181782
 C        -0.217190         0.541130         0.946654
 C        -1.584533        -0.020617         1.506433
 C        -1.855262         1.414401         1.942115
 C        -3.052806         2.133030         1.316903
 O        -2.362001         2.036831        -0.007676
 C        -1.056625         1.910456         0.667287
 C        -0.903262         1.485891         3.104426
 C         0.401475         1.101320         2.329018
 H         0.903475        -0.145964        -0.687027
 H        -2.308933        -0.433151         0.818452
 H        -1.467121        -0.673264         2.354931
 H        -4.056273         1.688719         1.423421
 H        -3.215731         3.293722         1.548074
 H        -0.497945         2.941277         0.646832
 H        -0.685914         2.527092         3.439574
 H        -1.235564         0.838389         3.948631
 H         0.889362         2.000239         2.314492
 H         1.003573         0.230135         2.566548
