19
Iteration:  1940
 O         0.548290        -0.252904         0.148604
 C        -0.246282         0.550756         0.960064
 C        -1.519268        -0.021768         1.528904
 C        -1.768779         1.462476         1.969170
 C        -3.111141         2.021319         1.221068
 O        -2.387665         1.944860        -0.030285
 C        -1.110776         1.921623         0.636231
 C        -0.821751         1.605095         3.185264
 C         0.447686         1.139202         2.372012
 H        -0.095771        -0.715116        -0.355684
 H        -2.257134        -0.288947         0.758866
 H        -1.251337        -0.815372         2.202163
 H        -3.896028         1.248129         1.417674
 H        -3.572287         3.008612         1.641245
 H        -0.481823         2.878428         0.518964
 H        -0.662666         2.653469         3.454760
 H        -1.026364         0.884312         4.024239
 H         1.158412         1.961709         2.044996
 H         0.915921         0.360935         2.838711
