19
Iteration:  4830charge 0 multiplicity 1
 O         0.518494        -0.109917         0.030940
 C        -0.274454         0.529307         1.062191
 C        -1.670379         0.021745         1.431659
 C        -1.863285         1.465264         2.007708
 C        -3.042011         2.209668         1.165058
 O        -2.280174         2.011720        -0.075073
 C        -0.999016         1.910868         0.794998
 C        -0.825776         1.490830         3.165297
 C         0.395378         0.815321         2.433867
 H         0.630215        -1.045747         0.390490
 H        -2.301000        -0.113475         0.582314
 H        -1.689001        -0.824050         2.076586
 H        -4.017688         1.698050         1.034434
 H        -3.215323         3.215245         1.359487
 H        -0.368424         2.873228         0.787541
 H        -0.524890         2.514105         3.256057
 H        -1.128573         0.961832         4.097870
 H         1.287291         1.471047         2.402160
 H         0.703296        -0.096461         2.896673
