19
Iteration:  4309
 O         0.560450        -0.111570         0.063104
 C        -0.276968         0.598991         0.965730
 C        -1.749982         0.066564         1.463982
 C        -1.845335         1.457229         1.947572
 C        -2.975947         2.197113         1.267615
 O        -2.232458         1.969718         0.011272
 C        -0.979506         1.948820         0.650624
 C        -0.883396         1.435815         3.165843
 C         0.293980         0.786647         2.404267
 H         1.190455        -0.648046         0.604291
 H        -2.455426        -0.303034         0.674716
 H        -1.600899        -0.727383         2.218532
 H        -3.853628         1.730872         1.272871
 H        -3.010068         3.266392         1.407640
 H        -0.436318         2.901970         0.553354
 H        -0.683770         2.482699         3.320667
 H        -1.260584         0.930512         4.096617
 H         1.205231         1.357534         2.341871
 H         0.497309        -0.218839         2.837290
