19
Iteration:  4218
 O         0.579643        -0.219695         0.058707
 C        -0.306590         0.493417         1.022003
 C        -1.737509         0.036872         1.384784
 C        -1.824710         1.509848         1.976142
 C        -3.059259         2.157893         1.207591
 O        -2.217962         2.119734         0.015145
 C        -0.960172         1.863838         0.741711
 C        -0.884603         1.388091         3.168909
 C         0.407026         1.004607         2.399739
 H         0.263474        -1.167674         0.168141
 H        -2.293234        -0.135286         0.467984
 H        -1.872080        -0.790897         2.140429
 H        -3.920593         1.659213         1.137972
 H        -3.177719         3.163680         1.453433
 H        -0.294383         2.694534         0.695750
 H        -0.885445         2.387941         3.679612
 H        -1.219779         0.585440         3.876166
 H         0.978474         1.946140         2.238717
 H         0.867081         0.200926         3.057989
