19
Iteration:  3803charge 0 multiplicity 1
 O         0.579340        -0.241148         0.136775
 C        -0.292125         0.475273         0.976223
 C        -1.652579        -0.069121         1.447341
 C        -1.783045         1.438547         1.970379
 C        -3.030801         2.161599         1.336151
 O        -2.300998         2.093421         0.016515
 C        -1.012688         1.882593         0.644666
 C        -0.870251         1.560479         3.066892
 C         0.298254         0.950121         2.415214
 H         1.115167         0.436267        -0.384824
 H        -2.288325        -0.310384         0.590267
 H        -1.685695        -0.841250         2.294372
 H        -3.995937         1.508632         1.084394
 H        -3.268225         3.205355         1.570514
 H        -0.328110         2.761825         0.535254
 H        -0.598437         2.626055         3.308628
 H        -1.270563         1.066418         3.939684
 H         1.295359         1.429970         2.324329
 H         0.524320         0.075590         2.917072
