19
Iteration:  4021charge 0 multiplicity 1
 O         0.570427         0.044897         0.046224
 C        -0.319302         0.468864         0.956361
 C        -1.721131        -0.171135         1.485274
 C        -1.810533         1.405128         1.950735
 C        -2.927223         2.207489         1.259780
 O        -2.231176         2.098226        -0.043189
 C        -1.016501         1.822290         0.707072
 C        -0.914309         1.579976         3.168009
 C         0.275852         0.780577         2.452037
 H         1.175244        -0.622065         0.311648
 H        -2.442765        -0.516850         0.682178
 H        -1.726952        -0.849713         2.373894
 H        -3.924644         1.868246         1.026575
 H        -3.097073         3.303222         1.510534
 H        -0.187014         2.631733         0.503206
 H        -0.672023         2.666735         3.332429
 H        -1.360945         1.190957         4.069516
 H         1.135807         1.421325         2.305797
 H         0.704502        -0.101951         2.990399
