19
Iteration:  1629
 O         0.719109        -0.096932         0.270377
 C        -0.332600         0.459938         0.964076
 C        -1.611002        -0.072859         1.530021
 C        -1.794854         1.557169         1.936188
 C        -3.106850         2.064214         1.341878
 O        -2.423815         1.929464        -0.031342
 C        -1.122600         1.831418         0.612879
 C        -0.755908         1.723102         3.013277
 C         0.367228         0.916387         2.339095
 H         0.457748        -0.434868        -0.604259
 H        -2.439168        -0.388197         0.911235
 H        -1.548714        -0.771864         2.323231
 H        -4.076460         1.445361         1.589611
 H        -3.374551         3.135501         1.444684
 H        -0.461606         2.738818         0.299593
 H        -0.195685         2.616135         3.362185
 H        -0.934282         1.317621         4.082507
 H         1.244112         1.603364         1.998185
 H         0.718180         0.058157         2.835067
