19
Iteration:   958charge 0 multiplicity 1
 O         0.461618        -0.131471        -0.006437
 C        -0.230560         0.593883         0.941100
 C        -1.508118        -0.072852         1.624561
 C        -1.843241         1.454475         1.974171
 C        -3.094534         2.056846         1.247702
 O        -2.404478         1.736427         0.025909
 C        -1.039321         1.823298         0.687551
 C        -0.854773         1.754810         3.121168
 C         0.464476         1.141609         2.332551
 H         0.702136        -0.976904         0.307397
 H        -2.099934        -0.643855         0.901845
 H        -1.226842        -0.779662         2.336633
 H        -4.133987         1.747471         1.406757
 H        -3.163540         3.124416         1.355776
 H        -0.374340         2.731258         0.598623
 H        -0.753359         2.843728         3.402232
 H        -0.975848         1.224529         4.083361
 H         1.211166         1.967602         2.070524
 H         0.999279         0.444305         2.983462
