19
Iteration:  3069charge 0 multiplicity 1
 O         0.667483        -0.231427         0.273625
 C        -0.363284         0.519529         0.982465
 C        -1.622679        -0.114693         1.471840
 C        -1.812483         1.489384         1.955526
 C        -3.110858         2.052265         1.287256
 O        -2.412441         2.019170        -0.006427
 C        -1.111554         1.961939         0.655108
 C        -0.695711         1.678444         3.113213
 C         0.382894         0.943677         2.275128
 H         0.712066         0.036626        -0.694303
 H        -2.343023        -0.468885         0.710972
 H        -1.279071        -0.875702         2.152765
 H        -3.912636         1.353638         1.362890
 H        -3.468082         3.049790         1.436883
 H        -0.639744         2.909090         0.572439
 H        -0.464850         2.790739         3.345592
 H        -0.934862         1.213748         4.135479
 H         1.271839         1.550852         2.045490
 H         0.813858        -0.138744         2.689596
