19
Iteration:  4090
 O         0.436292        -0.266740         0.060111
 C        -0.229134         0.537853         1.024384
 C        -1.633329         0.032648         1.362489
 C        -1.805362         1.522439         1.921941
 C        -3.038808         2.110935         1.222520
 O        -2.254711         2.066681         0.023255
 C        -0.938960         1.948305         0.659848
 C        -0.971203         1.442821         3.248883
 C         0.406702         0.970893         2.419870
 H         1.310408        -0.451027         0.387512
 H        -2.190625        -0.071610         0.451092
 H        -1.831318        -0.772567         2.097879
 H        -4.031821         1.489925         1.408750
 H        -3.359036         3.123451         1.430650
 H        -0.335552         2.850765         0.435071
 H        -0.866348         2.316582         3.798995
 H        -1.336860         0.626331         3.915538
 H         1.273671         1.619353         2.507488
 H         0.816443         0.075114         2.820065
