19
Iteration:   603charge 0 multiplicity 1
 O         0.469992        -0.250324         0.132240
 C        -0.186464         0.653130         0.889050
 C        -1.396364        -0.029314         1.471621
 C        -1.827212         1.413460         1.977411
 C        -2.972900         2.139572         1.347349
 O        -2.456712         1.782147        -0.050359
 C        -1.106937         1.828523         0.719400
 C        -0.894407         1.681738         3.138344
 C         0.359275         1.087475         2.384727
 H         0.862544         0.176129        -0.628261
 H        -2.077683        -0.515984         0.704860
 H        -1.256209        -0.816488         2.282245
 H        -4.035536         1.779039         1.268843
 H        -2.804063         3.272689         1.319535
 H        -0.750306         2.928746         0.619701
 H        -0.786025         2.719860         3.393672
 H        -1.123573         1.026001         3.995495
 H         1.096466         1.810469         2.414225
 H         0.789373         0.195006         3.096392
