19
Iteration:  3331charge 0 multiplicity 1
 O         0.673071        -0.211689         0.200226
 C        -0.298313         0.459873         0.973654
 C        -1.638521        -0.080058         1.573104
 C        -1.848398         1.414594         1.986330
 C        -3.086923         1.988716         1.296208
 O        -2.331291         2.168963        -0.008066
 C        -1.133299         1.786159         0.653805
 C        -0.799444         1.683726         3.078984
 C         0.442021         1.006965         2.283257
 H         0.395607         0.068358        -0.656727
 H        -2.351662        -0.415488         0.803771
 H        -1.588850        -0.887772         2.346642
 H        -4.050025         1.386514         1.145006
 H        -3.487254         3.082668         1.511692
 H        -0.427379         2.719959         0.505243
 H        -0.713617         2.721804         3.161312
 H        -1.161947         1.152012         3.968257
 H         1.122640         1.803780         2.082411
 H         0.989140         0.322425         2.832385
