19
Iteration:  4354
 O         0.542052        -0.132470         0.059265
 C        -0.340180         0.443684         0.981101
 C        -1.705171        -0.081155         1.449202
 C        -1.906485         1.325221         1.951783
 C        -2.942471         2.138752         1.292123
 O        -2.188347         2.188813         0.031870
 C        -0.991077         1.848552         0.698805
 C        -0.954795         1.514808         3.088944
 C         0.406814         0.996955         2.390567
 H         0.798694        -0.970491         0.473451
 H        -2.373862        -0.239623         0.588665
 H        -1.915281        -0.798155         2.267197
 H        -3.854320         1.800065         0.987122
 H        -2.869108         3.112931         1.780339
 H        -0.131633         2.535742         0.666139
 H        -0.913938         2.618831         3.286031
 H        -1.264302         0.922949         3.970329
 H         0.850363         1.984385         2.294022
 H         1.050707         0.286827         2.904735
