19
Iteration:  1892charge 0 multiplicity 1
 O         0.687706        -0.044997         0.197988
 C        -0.331286         0.504111         0.961940
 C        -1.628995        -0.142715         1.558637
 C        -1.852055         1.409699         2.029274
 C        -3.049434         2.133941         1.245892
 O        -2.414859         1.884178        -0.014724
 C        -1.092937         1.778538         0.670539
 C        -0.726871         1.686094         3.085909
 C         0.380697         1.051282         2.266689
 H         0.253210        -0.350584        -0.664058
 H        -2.259327        -0.550899         0.788403
 H        -1.600838        -0.735061         2.467697
 H        -4.025566         1.860209         1.411474
 H        -3.023075         3.223474         1.514026
 H        -0.497394         2.663962         0.579315
 H        -0.630228         2.772567         3.274385
 H        -1.102148         1.101847         3.939578
 H         1.106877         1.895533         2.106229
 H         0.860610         0.029532         2.739476
