19
Iteration:  2624
 O         0.619135        -0.153068         0.116288
 C        -0.322873         0.505254         0.947051
 C        -1.645382        -0.065021         1.515623
 C        -1.824685         1.431119         1.976396
 C        -3.017122         2.129808         1.358323
 O        -2.310618         1.894243         0.011425
 C        -1.020856         1.900055         0.701431
 C        -0.910255         1.614139         3.103745
 C         0.393961         1.048946         2.288330
 H         0.174247        -0.612457        -0.635433
 H        -2.325141        -0.446945         0.736658
 H        -1.490664        -0.699542         2.442725
 H        -3.977688         1.735452         1.320761
 H        -2.919039         3.274502         1.556131
 H        -0.356127         2.794734         0.532050
 H        -0.813942         2.681020         3.340460
 H        -1.172664         0.963464         3.981872
 H         1.175525         1.799498         1.999566
 H         0.773446         0.268391         2.905339
