19
Iteration:  3642charge 0 multiplicity 1
 O         0.565788        -0.211281         0.079135
 C        -0.260594         0.496221         0.963028
 C        -1.628881        -0.102248         1.456685
 C        -1.847509         1.436197         1.918695
 C        -3.000391         2.175370         1.408079
 O        -2.372116         2.052755        -0.003133
 C        -1.011960         1.825607         0.661566
 C        -0.930607         1.598277         3.047143
 C         0.356842         0.984741         2.381875
 H         1.507668        -0.083493         0.386899
 H        -2.234596        -0.439190         0.648098
 H        -1.560146        -0.807430         2.271836
 H        -3.920037         1.734447         1.361689
 H        -3.047141         3.286198         1.620806
 H        -0.429040         2.764681         0.577558
 H        -0.687477         2.625773         3.435162
 H        -1.044628         0.944952         3.917670
 H         1.215236         1.700088         2.207211
 H         0.803821         0.229018         3.215445
