19
Iteration:  1750charge 0 multiplicity 1
 O         0.651388        -0.168611         0.255013
 C        -0.217432         0.550912         0.975371
 C        -1.554527        -0.018522         1.458097
 C        -1.868002         1.422367         1.967100
 C        -3.094658         2.096323         1.345077
 O        -2.445911         1.858674         0.028848
 C        -1.090899         1.858925         0.602473
 C        -0.737197         1.748973         3.026506
 C         0.384272         0.952366         2.305734
 H         0.429799        -0.247391        -0.744502
 H        -2.252335        -0.309045         0.681872
 H        -1.474342        -0.696670         2.260706
 H        -4.050767         1.605466         1.568277
 H        -3.570285         3.146407         1.470489
 H        -0.501726         2.830699         0.563865
 H        -0.505486         2.835710         3.155185
 H        -1.133009         1.311762         4.017493
 H         1.298827         1.498563         2.522437
 H         0.451846         0.033363         2.714564
