19
Iteration:    99charge 0 multiplicity 1
 O         0.796356        -0.034276         0.091176
 C        -0.218497         0.499000         0.998475
 C        -1.642815        -0.014837         1.714707
 C        -1.875888         1.484722         1.995685
 C        -3.187941         1.964429         1.286191
 O        -2.469049         1.799321        -0.043440
 C        -1.174967         1.807688         0.684273
 C        -0.749424         1.797817         3.032427
 C         0.480415         1.033339         2.254219
 H         0.339558        -0.723967        -0.373477
 H        -2.385671        -0.547276         1.099390
 H        -1.401000        -0.530136         2.614689
 H        -4.086757         1.352285         1.325199
 H        -3.334880         3.054450         1.339997
 H        -0.744745         2.759020         0.500340
 H        -0.573550         2.901871         3.123253
 H        -0.909471         1.224887         3.914688
 H         1.357798         1.648395         2.146208
 H         0.769483         0.146041         2.864714
