19
Iteration:  3058
 O         0.620539        -0.230545         0.256855
 C        -0.266522         0.596377         0.921498
 C        -1.537727        -0.090970         1.447794
 C        -1.797738         1.476742         1.946254
 C        -3.055604         2.066568         1.349664
 O        -2.453782         1.992089        -0.026647
 C        -1.108757         1.874752         0.597766
 C        -0.741527         1.679206         3.140515
 C         0.329436         0.954073         2.316234
 H         0.668733        -0.031088        -0.651518
 H        -2.345336        -0.345305         0.732722
 H        -1.656022        -0.767364         2.282582
 H        -3.951959         1.485995         1.470505
 H        -3.234861         3.093042         1.620448
 H        -0.537250         2.784824         0.585553
 H        -0.561091         2.787152         3.441553
 H        -1.001738         0.991286         4.028455
 H         1.228701         1.553839         2.068329
 H         0.697919        -0.027598         3.014274
