19
Iteration:   903charge 0 multiplicity 1
 O         0.603719        -0.229682         0.098861
 C        -0.228471         0.509633         0.944269
 C        -1.559835        -0.089323         1.609567
 C        -1.800310         1.461899         1.977399
 C        -3.126161         1.990760         1.348205
 O        -2.432080         1.931775         0.003781
 C        -1.169520         1.858918         0.690895
 C        -0.788492         1.805545         3.021778
 C         0.388545         1.093480         2.239506
 H         1.417986        -0.461460         0.598357
 H        -2.237295        -0.413528         0.771035
 H        -1.501880        -0.790872         2.379758
 H        -3.917955         1.232096         1.339466
 H        -3.429285         3.000783         1.553870
 H        -0.500250         2.804730         0.656447
 H        -0.640396         2.918996         3.182733
 H        -0.868807         1.194922         3.926442
 H         1.284076         1.710779         2.017198
 H         0.884170         0.388286         2.859167
