19
Iteration:  1063
 O         0.463271        -0.296907         0.122252
 C        -0.211124         0.573420         0.988616
 C        -1.455301        -0.040996         1.550479
 C        -1.829099         1.384390         1.947427
 C        -3.089353         2.023825         1.399020
 O        -2.403782         1.851757        -0.057260
 C        -1.101693         1.811517         0.679716
 C        -0.856689         1.733066         3.080857
 C         0.411267         1.259066         2.286854
 H         1.377010        -0.048223        -0.086090
 H        -2.216651        -0.204110         0.713089
 H        -1.479806        -0.826726         2.358101
 H        -3.966510         1.437307         1.347249
 H        -3.064009         3.074298         1.763051
 H        -0.483013         2.713612         0.539124
 H        -0.744045         2.807497         3.317937
 H        -0.980730         1.156118         4.003395
 H         1.033799         1.967738         1.865849
 H         0.980271         0.493441         2.852702
