19
Iteration:  3201
 O         0.669451        -0.334905         0.163537
 C        -0.215426         0.497074         0.952665
 C        -1.520647        -0.078778         1.516422
 C        -1.904413         1.394788         1.893089
 C        -3.082815         2.088839         1.336954
 O        -2.395416         2.099887         0.058275
 C        -1.102374         1.860436         0.707552
 C        -0.870847         1.715585         3.008449
 C         0.386398         0.998720         2.336729
 H         0.487440         0.164229        -0.682460
 H        -2.238773        -0.481012         0.802183
 H        -1.479272        -0.641189         2.446359
 H        -3.919250         1.545330         1.153316
 H        -3.327463         3.036279         1.839230
 H        -0.635933         2.864748         0.663181
 H        -0.634687         2.858469         2.955547
 H        -1.033651         1.409905         4.101912
 H         1.228512         1.670428         2.177367
 H         0.726479        -0.002698         2.886638
