19
Iteration:  1361charge 0 multiplicity 1
 O         0.680195        -0.112182         0.132280
 C        -0.252678         0.502994         0.970968
 C        -1.644421        -0.100645         1.549553
 C        -1.831496         1.531883         1.940554
 C        -3.090714         2.096344         1.375946
 O        -2.434548         1.884575         0.012236
 C        -1.099565         1.782580         0.661102
 C        -0.793324         1.727759         3.033270
 C         0.379067         1.029409         2.250570
 H         1.298127        -0.650418         0.754955
 H        -2.376343        -0.414208         0.753664
 H        -1.570864        -0.867978         2.408864
 H        -3.903471         1.455764         1.211208
 H        -3.349826         3.175590         1.458171
 H        -0.497696         2.756016         0.475501
 H        -0.526130         2.843605         3.252771
 H        -0.971980         1.177564         3.953574
 H         1.177580         1.706007         2.089966
 H         0.618744         0.008864         2.852820
