19
Iteration:   586charge 0 multiplicity 1
 O         0.489550        -0.123086         0.093000
 C        -0.297164         0.568151         1.071277
 C        -1.561462        -0.088800         1.614629
 C        -1.844772         1.386943         1.959462
 C        -3.052079         2.091189         1.252913
 O        -2.355492         1.825698        -0.024569
 C        -1.062336         1.863523         0.644815
 C        -0.845639         1.654022         3.067106
 C         0.476785         1.061281         2.373829
 H         0.833840         0.474741        -0.550665
 H        -2.076936        -0.537052         0.777456
 H        -1.512280        -0.839605         2.398662
 H        -4.050040         1.608057         1.267022
 H        -3.017525         3.115420         1.535330
 H        -0.555463         2.809473         0.526976
 H        -0.735790         2.764992         3.223668
 H        -1.061805         1.228007         4.069732
 H         1.242298         1.910303         2.080514
 H         0.857865         0.169454         2.682671
