19
Iteration:  1996
 O         0.656245        -0.049820         0.076275
 C        -0.307224         0.463839         1.014950
 C        -1.574181        -0.108955         1.588260
 C        -1.840775         1.421894         1.948346
 C        -3.043724         2.127606         1.308770
 O        -2.382591         1.863620        -0.040538
 C        -1.090595         1.751871         0.681228
 C        -0.829324         1.797293         3.102326
 C         0.346045         0.963460         2.343883
 H         0.243903         0.065834        -0.863196
 H        -2.209836        -0.418464         0.729269
 H        -1.509536        -0.871993         2.373514
 H        -3.992827         1.541965         1.480590
 H        -2.913620         3.155598         1.808593
 H        -0.532520         2.793225         0.573932
 H        -0.517034         2.858636         3.090721
 H        -1.047395         1.595083         4.186560
 H         1.325010         1.448848         2.238219
 H         0.686644         0.191743         2.867669
