19
Iteration:  3398charge 0 multiplicity 1
 O         0.557267        -0.028072         0.060965
 C        -0.274357         0.563622         1.027329
 C        -1.674841        -0.078838         1.490718
 C        -1.850891         1.436361         1.920244
 C        -2.997989         2.089767         1.261069
 O        -2.363967         1.879741         0.000636
 C        -1.016670         1.817209         0.730250
 C        -0.867192         1.662635         3.073694
 C         0.454188         0.960173         2.424921
 H         0.520782        -0.985383        -0.175693
 H        -2.461919        -0.370886         0.814222
 H        -1.444117        -0.822252         2.275096
 H        -4.037186         1.824939         1.512226
 H        -2.976111         3.274105         1.477133
 H        -0.411036         2.795301         0.459048
 H        -0.694091         2.740285         3.189307
 H        -1.038972         1.115750         3.989027
 H         1.225406         1.615827         2.175256
 H         0.790609         0.167470         3.069168
