19
Iteration:  4843
 O         0.520328        -0.079954        -0.053226
 C        -0.320024         0.481484         0.979125
 C        -1.709013        -0.121081         1.493811
 C        -1.810080         1.445752         1.974609
 C        -3.059222         2.168898         1.111835
 O        -2.180207         2.097820        -0.006622
 C        -0.960716         1.840234         0.780562
 C        -0.830701         1.611036         3.234161
 C         0.335733         0.853022         2.492030
 H         0.403597        -1.020196        -0.095274
 H        -2.376208        -0.324446         0.642429
 H        -1.772243        -0.829735         2.219519
 H        -3.981808         1.572829         1.085253
 H        -3.266622         3.143370         1.393471
 H        -0.380615         2.728377         0.730171
 H        -0.670718         2.640147         3.632507
 H        -1.198016         1.265188         4.248867
 H         1.087913         1.575756         2.242971
 H         0.802204         0.010365         2.969359
