19
Iteration:  1569charge 0 multiplicity 1
 O         0.463830        -0.147853         0.106430
 C        -0.250298         0.536354         0.998680
 C        -1.582092        -0.081313         1.617702
 C        -1.859037         1.467259         1.977602
 C        -3.028699         2.029996         1.189278
 O        -2.283857         1.895465        -0.026789
 C        -1.005252         1.779928         0.658379
 C        -0.887281         1.631287         3.198754
 C         0.440445         1.167842         2.285271
 H        -0.004763        -0.234071        -0.685865
 H        -2.393548        -0.296607         0.870003
 H        -1.559114        -0.674882         2.577525
 H        -3.972026         1.525726         1.369283
 H        -3.213147         3.201616         1.456989
 H        -0.373605         2.646311         0.539457
 H        -0.658234         2.704477         3.390517
 H        -0.942624         0.898510         3.975000
 H         1.173655         1.909280         2.105374
 H         0.966540         0.368184         2.930629
