19
Iteration:   283charge 0 multiplicity 1
 O         0.530679        -0.078860        -0.005761
 C        -0.285179         0.480877         1.004717
 C        -1.700397         0.028917         1.694431
 C        -1.865479         1.447270         1.999118
 C        -3.159901         1.918290         1.191039
 O        -2.335242         1.883685        -0.012828
 C        -1.039393         1.790871         0.719023
 C        -0.733221         1.636256         3.109361
 C         0.459924         1.181477         2.327678
 H         1.409483        -0.292037         0.426596
 H        -2.410924        -0.201065         0.859099
 H        -1.559900        -0.544772         2.539342
 H        -3.918806         1.196090         1.144929
 H        -3.430033         2.933825         1.364616
 H        -0.310357         2.534238         0.276202
 H        -0.559324         2.747006         3.272232
 H        -0.838719         1.145180         4.001516
 H         1.224700         1.876217         1.953288
 H         0.976005         0.310465         2.823974
