19
Iteration:  3863
 O         0.541443        -0.029576         0.015780
 C        -0.355317         0.507626         1.031693
 C        -1.708046         0.015887         1.526502
 C        -1.794513         1.519977         1.972786
 C        -2.975976         2.085833         1.204808
 O        -2.225294         1.999227        -0.090204
 C        -0.975897         1.855935         0.748440
 C        -0.913011         1.482140         3.243359
 C         0.387360         0.892004         2.342706
 H         0.497987        -1.011463         0.054132
 H        -2.523408        -0.192284         0.831502
 H        -1.835773        -0.704549         2.306769
 H        -3.876570         1.529229         1.069228
 H        -3.289688         3.169921         1.440647
 H        -0.101214         2.701215         0.720789
 H        -0.622491         2.452424         3.617371
 H        -1.324854         0.919289         4.132739
 H         1.052320         1.671480         2.130684
 H         0.829778         0.037742         2.947184
