19
Iteration:  2381charge 0 multiplicity 1
 O         0.721348        -0.152172         0.224060
 C        -0.252116         0.569789         0.943428
 C        -1.640498        -0.059866         1.547289
 C        -1.838025         1.468461         1.995832
 C        -3.041615         2.177539         1.286051
 O        -2.456895         1.909576         0.002680
 C        -1.104694         1.842668         0.600952
 C        -0.808437         1.523191         3.086415
 C         0.391264         1.016071         2.253654
 H         0.259679        -0.594260        -0.474227
 H        -2.509383        -0.428327         0.908311
 H        -1.496597        -0.836483         2.377289
 H        -4.082268         1.838421         1.484004
 H        -2.916080         3.313996         1.555211
 H        -0.489630         2.847019         0.523389
 H        -0.605008         2.547451         3.506633
 H        -0.985601         0.938911         4.054584
 H         1.050450         1.938878         2.087922
 H         0.909230         0.250044         2.697588
