19
Iteration:  4037
 O         0.687629        -0.009059         0.056141
 C        -0.322505         0.417136         1.012049
 C        -1.667826        -0.137781         1.548776
 C        -1.943309         1.415554         1.943577
 C        -3.005477         2.283760         1.216891
 O        -2.244065         2.181491        -0.030436
 C        -1.030053         1.745399         0.747107
 C        -0.889407         1.545970         3.064851
 C         0.243745         0.796814         2.355059
 H         1.256187        -0.539849         0.614647
 H        -2.352118        -0.392290         0.780073
 H        -1.486619        -0.915190         2.288992
 H        -4.090085         1.887696         1.277298
 H        -3.017496         3.261885         1.675061
 H        -0.494484         2.604179         0.891521
 H        -0.599342         2.565735         3.202825
 H        -1.040603         1.011435         4.055482
 H         1.358342         1.490389         2.217893
 H         0.579550        -0.133742         2.826404
