19
Iteration:  1537charge 0 multiplicity 1
 O         0.590838        -0.184954         0.228139
 C        -0.307770         0.533392         0.970922
 C        -1.569687        -0.048187         1.572825
 C        -1.835088         1.576712         1.968479
 C        -3.113181         2.037708         1.189322
 O        -2.364813         1.898552        -0.021531
 C        -1.034899         1.863024         0.711075
 C        -0.772202         1.616791         3.148190
 C         0.427543         1.007932         2.220405
 H         0.242964        -0.072894        -0.710848
 H        -2.372278        -0.395325         0.847339
 H        -1.605394        -0.766725         2.445355
 H        -3.969719         1.449460         1.292773
 H        -3.509904         3.132676         1.235091
 H        -0.656377         2.866176         0.539847
 H        -0.528154         2.690104         3.561025
 H        -0.950235         1.048551         4.078011
 H         1.107312         1.741251         2.064614
 H         0.927957         0.227643         2.881570
