19
Iteration:  4249charge 0 multiplicity 1
 O         0.505609        -0.129638        -0.001852
 C        -0.340893         0.530930         0.985174
 C        -1.629708        -0.115944         1.508485
 C        -1.878421         1.340792         1.951147
 C        -2.864166         2.122399         1.258166
 O        -2.172303         2.187430        -0.043166
 C        -1.018395         1.901139         0.740905
 C        -0.969702         1.558457         3.140341
 C         0.323793         0.898108         2.387901
 H         0.523969        -1.018776         0.321846
 H        -2.307453        -0.382225         0.717418
 H        -1.447263        -0.887663         2.273311
 H        -4.017629         1.872061         1.144009
 H        -2.786472         3.133128         1.658232
 H        -0.465497         2.734188         1.006192
 H        -1.054848         2.667887         3.389064
 H        -1.351567         1.013873         4.002201
 H         1.364298         1.511984         2.350191
 H         0.577777         0.001346         3.091676
