19
Iteration:  1302charge 0 multiplicity 1
 O         0.517585        -0.142834         0.064307
 C        -0.244314         0.560977         1.010197
 C        -1.600361        -0.063771         1.654441
 C        -1.845207         1.441125         2.009336
 C        -3.080752         1.993558         1.231270
 O        -2.288932         1.839108        -0.020643
 C        -1.069975         1.856921         0.733903
 C        -0.850955         1.716835         3.104570
 C         0.445026         1.085242         2.281101
 H        -0.056871        -0.513346        -0.639359
 H        -2.303719        -0.492504         0.947398
 H        -1.422884        -0.822010         2.396664
 H        -4.041900         1.495451         0.873191
 H        -3.183932         3.125339         1.478024
 H        -0.504804         2.755776         0.534376
 H        -0.556031         2.728096         3.363525
 H        -1.058695         1.281885         4.122992
 H         1.075691         2.090437         2.101094
 H         1.189214         0.504899         2.740581
