19
Iteration:  1055charge 0 multiplicity 1
 O         0.424680        -0.273010         0.141452
 C        -0.190797         0.580434         0.985702
 C        -1.433900        -0.013304         1.527421
 C        -1.807281         1.391926         1.973133
 C        -3.092157         1.972372         1.390931
 O        -2.388488         1.868035        -0.010890
 C        -1.091828         1.831607         0.659463
 C        -0.836672         1.748381         2.996461
 C         0.387755         1.183903         2.293458
 H         1.336909        -0.156782         0.352568
 H        -2.058156        -0.397165         0.653255
 H        -1.546416        -0.722184         2.373635
 H        -4.129742         1.511364         1.451320
 H        -3.363360         3.017624         1.685568
 H        -0.526689         2.690521         0.476430
 H        -0.698342         2.826030         3.260671
 H        -1.003993         1.208916         3.850269
 H         0.914908         2.142012         1.957129
 H         1.101290         0.396420         2.840630
