19
Iteration:  2890
 O         0.616192        -0.111908         0.085025
 C        -0.307988         0.521273         1.009857
 C        -1.667527        -0.082588         1.613130
 C        -1.805493         1.491363         1.949807
 C        -2.959535         2.114527         1.290363
 O        -2.339569         1.922648        -0.039781
 C        -1.050104         1.801307         0.693485
 C        -0.940497         1.583899         3.136770
 C         0.436919         1.055947         2.305163
 H         0.022930        -0.262069        -0.626319
 H        -2.264155        -0.395375         0.760410
 H        -1.678753        -0.880913         2.405175
 H        -3.872243         1.657096         1.403284
 H        -3.079266         3.162176         1.521927
 H        -0.502122         2.675523         0.503816
 H        -0.692192         2.589326         3.502056
 H        -1.229876         0.894098         3.982614
 H         1.177277         1.923206         2.062643
 H         1.061261         0.227082         2.690499
