19
Iteration:   123
 O         0.554143         0.076694         0.048016
 C        -0.369200         0.459453         1.045640
 C        -1.570289        -0.089610         1.686989
 C        -1.791146         1.502829         1.994963
 C        -3.012451         1.986790         1.251625
 O        -2.383104         1.733687        -0.011995
 C        -1.080719         1.747873         0.620956
 C        -0.752070         1.755084         3.111863
 C         0.373170         1.148200         2.285906
 H         0.765607        -0.889454         0.192369
 H        -2.341955        -0.342902         0.894803
 H        -1.507019        -0.767004         2.555876
 H        -3.906912         1.299045         1.260578
 H        -3.264041         3.034577         1.269186
 H        -0.559757         2.613079         0.359983
 H        -0.634675         2.805570         3.208384
 H        -1.044722         1.122812         3.976720
 H         0.906903         2.019893         1.950489
 H         1.114822         0.403628         2.691663
