19
Iteration:  4324charge 0 multiplicity 1
 O         0.541270        -0.161244         0.050889
 C        -0.314385         0.505158         0.965185
 C        -1.541491        -0.082341         1.431836
 C        -1.845490         1.520138         1.954463
 C        -2.984814         2.250895         1.242357
 O        -2.307326         2.070336        -0.037145
 C        -0.995025         1.871302         0.792789
 C        -0.961251         1.525602         3.156606
 C         0.337738         0.814622         2.360960
 H         1.095801        -0.786248         0.606542
 H        -2.230223        -0.306098         0.652702
 H        -1.572546        -0.793717         2.244890
 H        -4.118271         1.898496         1.131245
 H        -3.059246         3.339547         1.593017
 H        -0.253447         2.877971         0.656296
 H        -0.671344         2.422061         3.763678
 H        -1.350105         0.826925         3.879673
 H         1.146991         1.558839         2.498211
 H         0.757739        -0.051300         2.804512
