19
Iteration:  4281
 O         0.574864         0.028683         0.014762
 C        -0.357886         0.419685         1.055763
 C        -1.706462        -0.036030         1.434633
 C        -1.838785         1.555395         1.970301
 C        -2.981890         2.198170         1.218684
 O        -2.229074         2.041294        -0.003653
 C        -1.028086         1.814996         0.740293
 C        -0.831930         1.575556         3.163770
 C         0.301923         0.681586         2.429294
 H         1.216631        -0.652023         0.408165
 H        -2.340075        -0.134100         0.577675
 H        -1.771642        -0.963311         2.007057
 H        -4.058602         1.539907         1.198811
 H        -3.234625         3.316525         1.303471
 H        -0.255732         2.715232         0.548797
 H        -0.546653         2.662591         3.319431
 H        -1.325751         1.261081         4.060668
 H         1.301146         1.237363         2.088757
 H         0.634439        -0.214834         3.066374
