19
Iteration:  4471
 O         0.437337        -0.150106         0.099893
 C        -0.314348         0.458159         0.982213
 C        -1.574612        -0.169228         1.484122
 C        -1.853996         1.355448         1.910317
 C        -3.025868         2.284760         1.254166
 O        -2.225230         2.216280        -0.048173
 C        -0.984386         1.823852         0.718927
 C        -0.908702         1.484468         3.115783
 C         0.412558         0.985981         2.402898
 H         0.936671        -0.868458         0.436486
 H        -2.169827        -0.495584         0.622641
 H        -1.560047        -0.834556         2.349034
 H        -3.885425         1.698566         1.002062
 H        -3.198257         3.255665         1.729247
 H        -0.441774         2.797018         1.000356
 H        -0.907295         2.450863         3.523821
 H        -1.318613         0.807851         3.884901
 H         1.135960         1.746804         2.230346
 H         0.840870         0.102822         2.875282
