19
Iteration:  2389
 O         0.717437        -0.106241         0.182057
 C        -0.361477         0.477502         0.910799
 C        -1.655414        -0.050776         1.608657
 C        -1.841695         1.404114         2.025378
 C        -2.980445         2.251429         1.256028
 O        -2.416402         1.891494         0.003853
 C        -1.101690         1.794460         0.585458
 C        -0.821415         1.538116         3.182292
 C         0.401379         1.085404         2.251865
 H         0.460883        -0.508847        -0.612558
 H        -2.383800        -0.263812         0.859888
 H        -1.546635        -0.834143         2.299967
 H        -3.833392         1.647101         1.354355
 H        -2.995616         3.345710         1.464413
 H        -0.663760         2.886663         0.423384
 H        -0.709839         2.532312         3.629529
 H        -1.021564         0.874131         4.019878
 H         0.986471         1.868017         2.003417
 H         1.055416         0.274572         2.653225
