19
Iteration:  3696charge 0 multiplicity 1
 O         0.507745        -0.154163         0.141221
 C        -0.313205         0.565240         0.997423
 C        -1.612922        -0.040123         1.557040
 C        -1.875678         1.473200         1.980740
 C        -3.078086         2.080876         1.171523
 O        -2.262672         2.010834        -0.021129
 C        -1.001509         1.897897         0.755220
 C        -0.822738         1.569737         3.135476
 C         0.438134         0.848023         2.349195
 H         0.213832         0.342178        -0.686347
 H        -2.192301        -0.378719         0.719925
 H        -1.666838        -0.777762         2.359325
 H        -4.006022         1.568216         1.060943
 H        -3.352255         3.147271         1.143641
 H        -0.469043         2.738127         0.761435
 H        -0.421100         2.603947         3.272999
 H        -1.113139         1.168261         4.115065
 H         1.192204         1.660432         2.123257
 H         0.922045        -0.127966         2.766912
