19
Iteration:   563
 O         0.615094        -0.092162         0.034851
 C        -0.330374         0.434334         1.019114
 C        -1.715105        -0.039522         1.620821
 C        -1.828314         1.523060         2.054607
 C        -3.105208         1.927447         1.199854
 O        -2.261605         1.963664        -0.020331
 C        -1.099745         1.716021         0.731434
 C        -0.785145         1.761031         3.109824
 C         0.393812         1.041769         2.282448
 H         1.082952         0.598586        -0.503063
 H        -2.653250        -0.444208         1.178774
 H        -1.390503        -0.739423         2.365550
 H        -3.775062         1.060449         1.414923
 H        -3.463455         2.907206         1.375056
 H        -0.478380         2.569287         0.574762
 H        -0.451908         2.799937         3.363396
 H        -1.017118         1.251873         4.095221
 H         1.104094         1.872180         1.797616
 H         0.860843         0.198627         2.798897
