19
Iteration:  2145charge 0 multiplicity 1
 O         0.656988        -0.027001         0.123915
 C        -0.329182         0.553693         0.992959
 C        -1.707734        -0.017648         1.596384
 C        -1.860802         1.570919         2.035343
 C        -3.034115         2.129731         1.219336
 O        -2.404839         1.709294        -0.040695
 C        -1.048860         1.856446         0.655051
 C        -0.720691         1.604638         3.186850
 C         0.426569         0.980254         2.312946
 H         0.311863        -0.283374        -0.790053
 H        -2.320191        -0.489032         0.842934
 H        -1.544931        -0.751091         2.345901
 H        -4.107160         1.795515         1.376207
 H        -3.177116         3.252745         1.232814
 H        -0.422126         2.646700         0.211499
 H        -0.340747         2.522078         3.672379
 H        -1.186757         0.943726         3.895048
 H         1.095990         1.711931         2.109420
 H         0.791233        -0.011687         2.703673
