19
Iteration:  2041
 O         0.617668        -0.133631         0.171794
 C        -0.269077         0.565175         0.983764
 C        -1.577253        -0.003399         1.565314
 C        -1.759052         1.536936         2.051652
 C        -3.078754         2.083392         1.264738
 O        -2.386637         1.860173        -0.067784
 C        -1.106146         1.831024         0.660157
 C        -0.822203         1.557789         3.163505
 C         0.363025         1.045508         2.263707
 H         0.033527        -0.579296        -0.549465
 H        -2.374657        -0.209086         0.825423
 H        -1.523602        -0.784631         2.391659
 H        -4.023759         1.406741         1.315869
 H        -3.200994         3.198970         1.139070
 H        -0.400667         2.780847         0.557532
 H        -0.600659         2.534736         3.593002
 H        -0.840859         0.872416         4.008843
 H         1.061977         1.749654         1.925458
 H         1.002824         0.398919         2.610933
