19
Iteration:   798charge 0 multiplicity 1
 O         0.536761        -0.242452        -0.021725
 C        -0.218537         0.586249         0.974423
 C        -1.534298        -0.026822         1.564956
 C        -1.842500         1.410285         1.987248
 C        -3.088591         1.997295         1.290936
 O        -2.363011         1.878867         0.030256
 C        -1.081750         1.910919         0.645194
 C        -0.844740         1.735145         3.064482
 C         0.432420         1.138230         2.425018
 H         0.404499        -1.097157         0.356140
 H        -2.162341        -0.503217         0.751176
 H        -1.420603        -0.801695         2.429873
 H        -4.069550         1.519945         1.188482
 H        -3.344460         3.042572         1.519938
 H        -0.512322         2.793745         0.798634
 H        -0.717489         2.805554         3.140501
 H        -0.947342         1.441830         4.150708
 H         1.239828         1.841267         2.103526
 H         0.720590         0.149823         2.901834
