19
Iteration:  3729
 O         0.470634        -0.105564        -0.012311
 C        -0.328504         0.553460         1.002477
 C        -1.651464        -0.122773         1.532960
 C        -1.775667         1.400623         1.949058
 C        -2.975517         2.080517         1.248985
 O        -2.207543         2.021535        -0.030488
 C        -0.965275         1.850731         0.687845
 C        -0.927494         1.614335         3.157247
 C         0.301734         1.018319         2.461572
 H         0.173397        -0.927014        -0.393775
 H        -2.305548        -0.459383         0.754319
 H        -1.603882        -0.836287         2.349426
 H        -3.998973         1.693255         1.292476
 H        -2.884862         3.144584         1.534514
 H        -0.253053         2.697795         0.825723
 H        -0.591674         2.636332         3.431722
 H        -1.031653         1.062711         4.091307
 H         1.050542         1.815583         2.239143
 H         0.936540         0.170823         2.983461
