19
Iteration:  3639charge 0 multiplicity 1
 O         0.569597        -0.201791         0.089065
 C        -0.292111         0.495129         0.965337
 C        -1.619805        -0.109631         1.471272
 C        -1.864479         1.411544         1.944068
 C        -2.977990         2.186152         1.389498
 O        -2.370640         2.071225        -0.025962
 C        -1.021749         1.823429         0.665394
 C        -0.903489         1.587537         3.047865
 C         0.384992         1.004851         2.374013
 H         1.468771        -0.206064         0.368893
 H        -2.289109        -0.395381         0.628523
 H        -1.574029        -0.854168         2.302994
 H        -4.027151         1.675787         1.419262
 H        -3.008552         3.241020         1.543157
 H        -0.521353         2.700594         0.681159
 H        -0.812968         2.654360         3.467213
 H        -1.144488         0.899462         3.856653
 H         1.293343         1.739175         2.256027
 H         0.796061         0.237033         3.080448
