19
Iteration:   188
 O         0.632556        -0.181751         0.240960
 C        -0.355478         0.535425         0.952856
 C        -1.674509        -0.047343         1.634637
 C        -1.758503         1.411638         1.978418
 C        -3.050756         1.878847         1.347866
 O        -2.426875         1.931446        -0.031966
 C        -1.133109         1.843874         0.571689
 C        -0.783479         1.731018         3.035076
 C         0.464098         1.162745         2.239441
 H         1.004886         0.491198        -0.299022
 H        -2.326145        -0.289589         0.742397
 H        -1.499529        -0.671739         2.515815
 H        -3.819403         1.052738         1.366574
 H        -3.270930         2.913955         1.713326
 H        -0.440881         2.680928         0.420179
 H        -0.768222         2.858367         3.155829
 H        -0.966373         1.196553         4.038715
 H         1.316406         1.790385         2.092892
 H         0.809483         0.173207         2.703218
