19
Iteration:  4925
 O         0.649727        -0.219108         0.302000
 C        -0.377627         0.505433         0.921302
 C        -1.796104         0.031046         1.329096
 C        -1.748068         1.541609         1.905522
 C        -2.938800         2.181527         1.374885
 O        -2.296993         2.018486         0.000752
 C        -0.982661         1.921540         0.630421
 C        -0.880538         1.439069         3.116160
 C         0.308505         0.871795         2.389989
 H         0.731821         0.203581        -0.607969
 H        -2.578789        -0.264642         0.637924
 H        -1.461548        -0.685224         2.158928
 H        -3.812313         1.585193         1.583322
 H        -3.057323         3.249050         1.795077
 H        -0.360761         2.675175         0.301679
 H        -0.831425         2.452920         3.401709
 H        -1.370098         0.818105         3.752322
 H         1.108496         1.636034         2.137698
 H         0.809314         0.025340         2.904523
