19
Iteration:  3250
 O         0.620546        -0.090515         0.120023
 C        -0.336146         0.550422         0.959619
 C        -1.686905         0.005695         1.647824
 C        -1.852332         1.530201         1.956418
 C        -3.040122         2.074654         1.286802
 O        -2.272190         1.863637        -0.003741
 C        -0.970148         1.857850         0.684998
 C        -0.824347         1.530440         3.140797
 C         0.367200         0.990961         2.252817
 H         0.064994        -0.448377        -0.553010
 H        -2.355062        -0.248279         0.786521
 H        -1.649009        -0.836501         2.369755
 H        -4.059804         1.490028         1.277666
 H        -3.213281         3.122181         1.291442
 H        -0.470295         2.748637         0.440432
 H        -0.739091         2.544376         3.471770
 H        -1.104254         0.952235         3.997586
 H         0.990835         1.908172         1.920992
 H         0.917999         0.305455         2.901147
