19
Iteration:  4237charge 0 multiplicity 1
 O         0.445041        -0.157680         0.067196
 C        -0.284312         0.500966         0.992011
 C        -1.581850        -0.117516         1.411244
 C        -1.845469         1.349187         1.971219
 C        -2.935795         2.200773         1.254647
 O        -2.178619         2.174503        -0.017429
 C        -0.942455         1.886551         0.714297
 C        -1.021712         1.537218         3.190092
 C         0.313678         0.937320         2.389468
 H         0.420624        -1.158635         0.152695
 H        -2.248837        -0.424890         0.607575
 H        -1.546772        -0.937487         2.129737
 H        -3.998684         1.631793         1.111159
 H        -3.063051         3.227944         1.671385
 H        -0.362697         2.807138         0.749068
 H        -0.734614         2.573154         3.545628
 H        -1.160884         0.902341         4.043645
 H         0.951648         1.923343         2.185565
 H         0.892002         0.052918         2.838684
