19
Iteration:  4142
 O         0.549208        -0.108037         0.067002
 C        -0.314452         0.426656         1.008645
 C        -1.728083        -0.095481         1.427119
 C        -1.894058         1.335298         1.967257
 C        -2.976725         2.197370         1.229319
 O        -2.176472         2.101797        -0.000846
 C        -0.980623         1.781251         0.769457
 C        -0.862095         1.631064         3.072137
 C         0.311854         0.865903         2.465349
 H         0.795894         0.642915        -0.510422
 H        -2.463280        -0.290408         0.635489
 H        -1.776348        -0.952968         2.147690
 H        -3.927934         1.707126         1.155483
 H        -3.073852         3.315629         1.662434
 H        -0.284019         2.722683         0.718566
 H        -0.683747         2.737549         3.156311
 H        -1.220605         1.327303         4.071733
 H         1.146908         1.519493         2.395562
 H         0.691097         0.050848         3.147856
