19
Iteration:  4592charge 0 multiplicity 1
 O         0.453896        -0.125497         0.051049
 C        -0.334766         0.575677         1.041791
 C        -1.741987        -0.060799         1.431004
 C        -1.870366         1.407628         1.966619
 C        -2.958378         2.152194         1.178323
 O        -2.214571         2.088498        -0.087823
 C        -1.020861         1.946462         0.776871
 C        -0.823927         1.495258         3.191947
 C         0.431425         0.877964         2.419073
 H         0.828202        -0.986514         0.381485
 H        -2.232031        -0.198400         0.498958
 H        -1.736675        -0.930916         2.091010
 H        -3.876176         1.617605         1.056286
 H        -3.117792         3.127454         1.609069
 H        -0.283939         2.836406         0.807186
 H        -0.586422         2.320990         3.740518
 H        -1.170153         0.854711         3.967202
 H         1.249156         1.526724         2.238462
 H         0.754264         0.093646         3.033794
