19
Iteration:  1068charge 0 multiplicity 1
 O         0.505734        -0.308802         0.108977
 C        -0.255558         0.554681         1.005948
 C        -1.520031        -0.077170         1.569966
 C        -1.834299         1.414685         1.951759
 C        -3.048909         2.034471         1.364987
 O        -2.416674         1.856494        -0.046513
 C        -1.098057         1.814418         0.658142
 C        -0.854868         1.721498         3.128310
 C         0.435418         1.272848         2.261166
 H         1.326074         0.077034        -0.332265
 H        -2.196305        -0.334024         0.778639
 H        -1.346880        -0.898709         2.263329
 H        -4.017024         1.433458         1.359645
 H        -3.060432         3.099839         1.623735
 H        -0.652036         2.824765         0.592187
 H        -0.869392         2.801640         3.357272
 H        -0.991407         1.187205         4.087842
 H         1.296395         2.052066         2.004171
 H         1.025954         0.546850         2.892893
