19
Iteration:  4640
 O         0.562750        -0.185615         0.138232
 C        -0.274037         0.429693         1.000811
 C        -1.671553        -0.061532         1.367724
 C        -1.728764         1.375905         1.881847
 C        -2.987590         2.112265         1.298605
 O        -2.318529         2.276079        -0.000406
 C        -0.984420         1.884926         0.642247
 C        -0.888657         1.531295         3.129546
 C         0.302669         0.945074         2.454426
 H         0.548546        -1.111207        -0.024869
 H        -2.420356        -0.091064         0.480698
 H        -1.748736        -0.829723         2.261625
 H        -3.963538         1.653705         1.227540
 H        -3.072832         3.133987         1.658453
 H        -0.303507         2.717882         0.624839
 H        -0.929526         2.476573         3.804858
 H        -1.235724         0.870186         3.962521
 H         1.255845         1.587343         2.380278
 H         0.589730        -0.062972         3.022271
