19
Iteration:  1978charge 0 multiplicity 1
 O         0.650282        -0.081892         0.141071
 C        -0.332185         0.499206         0.976376
 C        -1.633868        -0.114851         1.578121
 C        -1.827833         1.428762         2.030113
 C        -3.077021         2.008541         1.266692
 O        -2.349749         1.967101         0.010424
 C        -1.062265         1.813052         0.692944
 C        -0.725588         1.765875         3.037240
 C         0.384003         0.982147         2.303297
 H         0.290157        -0.107942        -0.811106
 H        -2.535588        -0.444158         1.037346
 H        -1.458235        -0.885077         2.408385
 H        -3.999853         1.267824         1.148272
 H        -3.449313         3.024515         1.300038
 H        -0.550509         2.728685         0.525455
 H        -0.735113         2.861455         3.124959
 H        -1.038014         1.463387         4.023253
 H         1.189102         1.688398         2.136315
 H         0.618684         0.038308         2.982589
