19
Iteration:  2225
 O         0.693406        -0.150421         0.240836
 C        -0.264113         0.461914         0.970461
 C        -1.586356        -0.066765         1.578217
 C        -1.816913         1.376493         1.979952
 C        -3.200116         2.022244         1.244957
 O        -2.411329         2.112057         0.017408
 C        -1.095456         1.886925         0.685586
 C        -0.720256         1.679050         3.022354
 C         0.360604         0.987072         2.229610
 H         0.278365        -0.739520        -0.482397
 H        -2.419340        -0.452043         1.040583
 H        -1.309494        -0.748793         2.368963
 H        -3.913382         1.270098         1.220868
 H        -3.494927         3.013263         1.576838
 H        -0.516680         2.769271         0.621907
 H        -0.578187         2.762516         3.086015
 H        -0.898416         1.354769         4.044942
 H         1.266098         1.513378         1.959892
 H         0.780441         0.105891         2.812622
