19
Iteration:   725charge 0 multiplicity 1
 O         0.565318        -0.125134         0.035159
 C        -0.262579         0.551346         0.980741
 C        -1.603160        -0.004032         1.606422
 C        -1.840465         1.535837         1.997530
 C        -3.059997         2.094835         1.225274
 O        -2.368666         1.729146         0.005339
 C        -1.115570         1.901200         0.672662
 C        -0.793835         1.635544         3.159152
 C         0.394509         1.018897         2.270755
 H         1.473882        -0.225386         0.417873
 H        -2.297985        -0.397179         0.876952
 H        -1.678519        -0.766886         2.402565
 H        -4.031810         1.571431         1.388598
 H        -3.136070         3.202794         1.411598
 H        -0.515208         2.863866         0.364447
 H        -0.612877         2.637736         3.580437
 H        -1.129198         1.023006         3.983665
 H         1.025043         1.850180         2.111139
 H         0.958583         0.158075         2.769419
