19
Iteration:  4015
 O         0.540449         0.035573         0.005619
 C        -0.308234         0.508361         0.994234
 C        -1.767238        -0.136724         1.457573
 C        -1.831755         1.426290         1.949306
 C        -2.904471         2.172895         1.262401
 O        -2.217317         2.047497        -0.036167
 C        -0.948981         1.846271         0.694074
 C        -0.948386         1.597827         3.175713
 C         0.300751         0.798343         2.477158
 H         1.057695        -0.734572         0.392765
 H        -2.450392        -0.401234         0.682592
 H        -1.691219        -0.838723         2.278244
 H        -3.960238         1.727421         1.093893
 H        -3.035599         3.198225         1.614636
 H        -0.313457         2.647241         0.502904
 H        -0.782510         2.634696         3.372328
 H        -1.286426         1.009818         4.081132
 H         1.370383         1.392124         2.310921
 H         0.655855        -0.120906         2.938179
