19
Iteration:  3711
 O         0.521739        -0.110640        -0.002567
 C        -0.291643         0.477564         1.014952
 C        -1.662006        -0.044149         1.590904
 C        -1.862978         1.452923         2.005024
 C        -3.007775         2.100666         1.188468
 O        -2.178050         2.014743        -0.037293
 C        -1.010830         1.819163         0.791165
 C        -0.894588         1.622193         3.163261
 C         0.383853         0.969150         2.336202
 H        -0.013101        -0.388098        -0.759737
 H        -2.442316        -0.302719         0.839206
 H        -1.499679        -0.787293         2.375248
 H        -3.850835         1.410017         1.091807
 H        -3.320145         3.101413         1.582370
 H        -0.381614         2.776348         0.670204
 H        -0.818125         2.658880         3.442972
 H        -1.180340         0.974937         4.048603
 H         1.206683         1.642100         2.230769
 H         0.794328         0.073796         2.946418
