19
Iteration:  4885charge 0 multiplicity 1
 O         0.518895        -0.192465         0.094683
 C        -0.319269         0.516384         1.035044
 C        -1.620013        -0.125538         1.466838
 C        -1.888596         1.404875         1.965626
 C        -3.024827         2.176905         1.195260
 O        -2.206744         2.155447        -0.042999
 C        -1.012223         1.898757         0.760891
 C        -0.888702         1.570841         3.119358
 C         0.403618         0.873272         2.418045
 H        -0.023946        -0.390293        -0.668304
 H        -2.262350        -0.644271         0.739018
 H        -1.527236        -0.792967         2.308376
 H        -3.999831         1.745849         0.839333
 H        -3.145989         3.215677         1.483853
 H        -0.400425         2.898480         0.949157
 H        -0.499353         2.539824         3.457665
 H        -1.108293         1.044860         4.124857
 H         1.251074         1.584436         2.381293
 H         0.760000         0.000456         2.935639
