19
Iteration:   573
 O         0.558352        -0.085420         0.061822
 C        -0.288971         0.473263         1.002192
 C        -1.657682        -0.081476         1.667899
 C        -1.837734         1.459694         1.989386
 C        -3.056284         1.991632         1.237054
 O        -2.318547         1.903480        -0.038791
 C        -1.047109         1.755257         0.732971
 C        -0.757416         1.721465         3.093821
 C         0.360677         1.055903         2.266548
 H         0.872833         0.757848        -0.394743
 H        -2.408623        -0.294791         0.861738
 H        -1.710080        -0.722251         2.548003
 H        -4.009203         1.360120         1.187808
 H        -3.466338         2.996976         1.398655
 H        -0.448293         2.604075         0.659621
 H        -0.620695         2.787448         3.357094
 H        -0.945003         1.120849         4.031496
 H         1.229572         1.776756         2.019168
 H         0.917430         0.397580         2.993595
