19
Iteration:   373charge 0 multiplicity 1
 O         0.664202        -0.098122         0.225524
 C        -0.378843         0.568450         0.977557
 C        -1.624664        -0.006261         1.680842
 C        -1.868481         1.401081         1.973649
 C        -3.084143         2.087146         1.212960
 O        -2.336796         1.850969        -0.019347
 C        -1.119972         1.833721         0.618902
 C        -0.768405         1.582766         3.143319
 C         0.445294         1.099703         2.213049
 H         0.275402        -0.166329        -0.651289
 H        -2.348604        -0.383246         0.994071
 H        -1.263782        -0.762324         2.415046
 H        -3.895716         1.387849         1.214274
 H        -3.213325         3.112564         1.466853
 H        -0.533988         2.775295         0.366548
 H        -0.627862         2.606918         3.525584
 H        -1.057390         0.947476         3.990910
 H         1.051230         1.942232         1.986946
 H         1.001846         0.084918         2.467238
