19
Iteration:  3472charge 0 multiplicity 1
 O         0.484889        -0.353596         0.165444
 C        -0.288421         0.586434         0.947440
 C        -1.532597        -0.047190         1.368104
 C        -1.804118         1.454650         2.003109
 C        -3.034154         2.095468         1.275143
 O        -2.362603         1.972034         0.002713
 C        -1.056699         1.941852         0.676513
 C        -0.855672         1.613838         3.192009
 C         0.398791         1.068309         2.353124
 H         1.068825         0.227703        -0.295919
 H        -2.132716        -0.275412         0.480012
 H        -1.443914        -0.904948         2.111378
 H        -4.043678         1.556527         1.228874
 H        -3.184830         3.021764         1.654086
 H        -0.475357         2.788840         0.646408
 H        -0.873749         2.594762         3.578141
 H        -1.107661         0.846048         3.970496
 H         1.327395         1.782580         2.065742
 H         0.812317         0.292272         2.998106
