19
Iteration:  4523
 O         0.518801        -0.070287         0.142420
 C        -0.320886         0.529243         1.089492
 C        -1.698958        -0.047768         1.344958
 C        -1.868445         1.514189         2.011893
 C        -3.016931         2.156796         1.227211
 O        -2.295744         2.069368        -0.027568
 C        -0.975827         1.868474         0.690226
 C        -0.776902         1.531327         3.100994
 C         0.379419         0.765828         2.407546
 H         0.960556        -0.870194         0.375747
 H        -2.246632        -0.127029         0.399693
 H        -1.857223        -0.846975         1.983084
 H        -4.067447         1.741694         1.205678
 H        -3.133263         3.183754         1.563253
 H        -0.335060         2.818437         0.511797
 H        -0.554878         2.454635         3.536347
 H        -1.077377         0.997859         3.976246
 H         1.232786         1.409839         2.304365
 H         0.684640        -0.163875         2.749467
