19
Iteration:  1836
 O         0.522418        -0.158885         0.103633
 C        -0.284795         0.589534         0.961422
 C        -1.529897         0.019908         1.530490
 C        -1.835779         1.419740         2.094703
 C        -3.076414         1.971627         1.250375
 O        -2.351059         1.864615        -0.022365
 C        -1.008216         1.895670         0.572947
 C        -0.812553         1.736873         3.142842
 C         0.422509         1.014333         2.377355
 H        -0.039706        -0.405473        -0.683070
 H        -2.144845        -0.319559         0.664767
 H        -1.644554        -0.818130         2.217723
 H        -3.854263         1.283162         1.260530
 H        -3.399002         3.065682         1.524226
 H        -0.430731         2.782495         0.493241
 H        -0.852611         2.799115         3.455053
 H        -1.060724         1.291425         4.125534
 H         1.297061         1.692962         2.401056
 H         0.728362        -0.044567         2.990779
