19
Iteration:  2060charge 0 multiplicity 1
 O         0.587582        -0.193762         0.198805
 C        -0.316449         0.491414         0.992304
 C        -1.661559        -0.014750         1.572410
 C        -1.811355         1.455789         1.952643
 C        -3.107972         1.968126         1.283025
 O        -2.345021         1.991662         0.002959
 C        -1.033291         1.900391         0.647473
 C        -0.759053         1.588342         3.126376
 C         0.448865         1.155013         2.245176
 H         0.067652        -0.674136        -0.496783
 H        -2.298641        -0.444831         0.800197
 H        -1.550674        -0.600715         2.444603
 H        -3.847470         1.299254         1.016854
 H        -3.555698         2.923452         1.481648
 H        -0.411063         2.816356         0.575698
 H        -0.742485         2.617328         3.494796
 H        -1.208198         0.876661         3.872821
 H         1.284127         2.018332         1.955822
 H         1.109530         0.264020         2.710947
