19
Iteration:  3866
 O         0.560131        -0.035756         0.001159
 C        -0.345604         0.509720         1.029738
 C        -1.689057         0.029290         1.536170
 C        -1.798066         1.534670         1.975182
 C        -2.985520         2.102549         1.211297
 O        -2.228058         1.995673        -0.093807
 C        -0.993727         1.864610         0.733889
 C        -0.919291         1.474152         3.261949
 C         0.359622         0.865408         2.329539
 H         0.613657        -1.031100         0.164958
 H        -2.520644        -0.046581         0.842017
 H        -1.913537        -0.747238         2.325854
 H        -3.803975         1.453335         1.100980
 H        -3.228612         3.122681         1.447653
 H        -0.229051         2.601093         0.654428
 H        -0.670659         2.508815         3.641924
 H        -1.242544         0.905108         4.125478
 H         1.159741         1.717901         2.148237
 H         0.820827        -0.006677         2.999782
