19
Iteration:  3429charge 0 multiplicity 1
 O         0.591882        -0.012880        -0.019823
 C        -0.313091         0.479119         0.966107
 C        -1.643754        -0.110190         1.654660
 C        -1.881098         1.469212         1.984592
 C        -3.051273         2.074731         1.216776
 O        -2.302805         1.996347        -0.030171
 C        -1.044362         1.805631         0.756043
 C        -0.802591         1.725084         3.103781
 C         0.316326         0.881925         2.330016
 H         1.301819        -0.492255         0.438265
 H        -2.529576        -0.479737         1.118553
 H        -1.306325        -0.842789         2.478136
 H        -4.051957         1.501069         1.220624
 H        -3.208172         3.097981         1.322524
 H        -0.485914         2.726553         0.496353
 H        -0.490498         2.714749         3.296429
 H        -0.938396         1.171561         4.054391
 H         1.389799         1.389162         2.279678
 H         0.561263        -0.028752         2.853228
