19
Iteration:  4528
 O         0.515976        -0.020139         0.121026
 C        -0.325164         0.501505         1.077444
 C        -1.662170        -0.011793         1.401963
 C        -1.881800         1.427276         1.986551
 C        -2.994683         2.208793         1.228962
 O        -2.289187         2.043378        -0.051484
 C        -1.016882         1.870324         0.677032
 C        -0.751022         1.513812         3.138978
 C         0.340135         0.767615         2.408648
 H         0.926340        -0.886650         0.463096
 H        -2.213490        -0.104018         0.466355
 H        -1.860493        -0.977140         2.038842
 H        -4.007837         1.893851         1.049883
 H        -3.031027         3.277517         1.568161
 H        -0.493436         2.798812         0.510164
 H        -0.363642         2.579576         3.435939
 H        -1.185165         0.980921         4.039475
 H         1.262877         1.399413         2.328159
 H         0.668307        -0.264343         2.861683
