19
Iteration:  1305charge 0 multiplicity 1
 O         0.521846        -0.145336         0.052045
 C        -0.257687         0.552423         1.018040
 C        -1.557992        -0.051700         1.633009
 C        -1.877038         1.477700         1.992798
 C        -3.074291         2.004667         1.236336
 O        -2.317460         1.827266        -0.001779
 C        -1.040870         1.840135         0.733061
 C        -0.859792         1.686277         3.099995
 C         0.437837         1.107193         2.296547
 H        -0.089909        -0.610200        -0.497837
 H        -2.217185        -0.444659         0.866948
 H        -1.398709        -0.831947         2.459225
 H        -3.993149         1.643467         0.943766
 H        -3.245182         3.067459         1.402217
 H        -0.425258         2.787791         0.588586
 H        -0.582444         2.788030         3.341159
 H        -1.061179         1.204354         4.062577
 H         1.073326         1.973065         2.032381
 H         1.261882         0.496827         2.793792
