19
Iteration:  3382
 O         0.593787        -0.160049         0.059804
 C        -0.236293         0.526005         1.020391
 C        -1.587342        -0.015400         1.430804
 C        -1.826722         1.458958         1.968299
 C        -3.012915         2.152870         1.334807
 O        -2.365162         1.834570         0.003760
 C        -1.017851         1.847077         0.706286
 C        -0.859544         1.630394         3.153618
 C         0.350721         1.077087         2.349234
 H        -0.004190        -0.878454        -0.146176
 H        -2.117423        -0.125476         0.452389
 H        -1.818029        -0.852652         2.122922
 H        -3.990348         1.623515         1.251581
 H        -3.207242         3.155606         1.474954
 H        -0.581396         2.780213         0.642709
 H        -0.741470         2.689431         3.441761
 H        -1.192823         0.973726         3.998327
 H         1.214588         1.888218         2.265363
 H         0.900474         0.219191         2.830174
