19
Iteration:  4902charge 0 multiplicity 1
 O         0.597502        -0.278987         0.184964
 C        -0.221162         0.520153         0.967870
 C        -1.635699         0.017794         1.436964
 C        -1.876327         1.475916         1.977487
 C        -3.071185         2.226599         1.193458
 O        -2.287764         2.078794        -0.036941
 C        -1.038396         1.877877         0.771712
 C        -0.818094         1.500594         3.198521
 C         0.340787         0.883433         2.368153
 H         0.408383        -0.022121        -0.727727
 H        -2.222625         0.052057         0.531548
 H        -1.852110        -0.996731         1.992415
 H        -3.970969         1.664245         1.341744
 H        -3.203101         3.342308         1.468095
 H        -0.481384         2.748171         0.710791
 H        -0.802533         2.566878         3.398227
 H        -1.143656         0.819471         3.897641
 H         1.268510         1.478088         2.171693
 H         0.724719        -0.086891         2.796059
