19
Iteration:   906
 O         0.620912        -0.224212         0.102861
 C        -0.260494         0.502480         0.954892
 C        -1.554653        -0.086345         1.575395
 C        -1.808594         1.485862         1.980552
 C        -3.136286         1.977434         1.333327
 O        -2.422811         1.933999         0.012082
 C        -1.176924         1.853063         0.688686
 C        -0.753489         1.814158         3.037139
 C         0.392634         1.096404         2.237751
 H         1.412912        -0.546187         0.501465
 H        -2.330794        -0.443974         0.875909
 H        -1.549741        -0.788650         2.477380
 H        -3.952894         1.213052         1.267777
 H        -3.530676         3.015145         1.598601
 H        -0.420400         2.715272         0.609694
 H        -0.707047         2.900059         3.246518
 H        -0.871717         1.116778         3.964022
 H         1.297433         1.723063         1.955464
 H         0.884851         0.413324         2.876910
