19
Iteration:   953
 O         0.473473        -0.120024         0.003873
 C        -0.268619         0.539410         1.000299
 C        -1.533226        -0.043743         1.629518
 C        -1.829886         1.477246         1.948670
 C        -3.089320         2.006077         1.282571
 O        -2.383543         1.773529        -0.012498
 C        -1.049029         1.837085         0.693600
 C        -0.851559         1.737955         3.096518
 C         0.460956         1.183976         2.306299
 H         0.730140        -1.009673         0.420666
 H        -2.146227        -0.652469         0.934857
 H        -1.167861        -0.776748         2.469252
 H        -4.095888         1.570013         1.449615
 H        -3.075796         3.138824         1.413747
 H        -0.629244         2.830825         0.582088
 H        -0.641763         2.743880         3.410876
 H        -1.040228         1.042346         3.930707
 H         1.302081         1.781908         2.013385
 H         1.079803         0.410930         2.925761
