19
Iteration:  4926charge 0 multiplicity 1
 O         0.648134        -0.213598         0.304153
 C        -0.377102         0.505947         0.916321
 C        -1.787357         0.028142         1.334638
 C        -1.742981         1.537615         1.900536
 C        -2.937884         2.187334         1.377747
 O        -2.297413         2.023783        -0.000455
 C        -0.982486         1.912526         0.629689
 C        -0.882017         1.441308         3.111619
 C         0.300301         0.870487         2.393551
 H         0.731521         0.201889        -0.609875
 H        -2.602884        -0.291036         0.663521
 H        -1.476704        -0.731531         2.159116
 H        -3.819486         1.562489         1.612629
 H        -3.058582         3.280046         1.782828
 H        -0.335864         2.693756         0.272970
 H        -0.862880         2.428343         3.420679
 H        -1.370896         0.818138         3.764616
 H         1.121351         1.625209         2.127851
 H         0.815015         0.039893         2.894848
