19
Iteration:  3569
 O         0.491053        -0.067388        -0.017508
 C        -0.258149         0.583646         1.033486
 C        -1.551732        -0.007979         1.472043
 C        -1.808809         1.470458         1.988050
 C        -3.028868         2.072790         1.257510
 O        -2.342614         1.935584        -0.074696
 C        -0.998662         1.915933         0.645895
 C        -0.846632         1.622149         3.171055
 C         0.333678         0.863353         2.576847
 H         0.238620        -0.971231        -0.084572
 H        -2.236972        -0.323375         0.688047
 H        -1.250461        -0.849706         2.146677
 H        -3.948413         1.358788         1.412169
 H        -3.248264         3.144284         1.519925
 H        -0.372195         2.747049         0.205041
 H        -0.584406         2.637383         3.283368
 H        -1.102847         1.180267         4.192507
 H         1.224013         1.416134         2.433998
 H         0.649184        -0.074028         2.847267
