19
Iteration:  3406charge 0 multiplicity 1
 O         0.571783         0.032830         0.042158
 C        -0.345073         0.479949         1.015981
 C        -1.622260        -0.078648         1.564327
 C        -1.848766         1.402005         1.959706
 C        -2.975898         2.135136         1.289199
 O        -2.336639         1.904432        -0.044540
 C        -1.066847         1.830275         0.665218
 C        -0.828147         1.670885         3.086622
 C         0.403172         0.926954         2.411803
 H         0.640185        -0.974166         0.020358
 H        -2.373978        -0.478412         0.860926
 H        -1.537949        -0.742547         2.491166
 H        -4.020642         1.659948         1.177686
 H        -3.043480         3.133723         1.483051
 H        -0.554070         2.787369         0.562469
 H        -0.620156         2.698103         3.151910
 H        -1.169645         1.284943         4.089765
 H         1.362783         1.607818         2.330074
 H         0.794221         0.025099         2.862846
