19
Iteration:  2494
 O         0.703145        -0.140803         0.159845
 C        -0.333099         0.498757         0.956345
 C        -1.606982        -0.131056         1.523714
 C        -1.815684         1.479631         1.980697
 C        -3.010438         2.149180         1.266324
 O        -2.396259         1.993945        -0.009863
 C        -1.123208         1.795301         0.719670
 C        -0.804026         1.591359         3.105739
 C         0.364574         1.041036         2.303411
 H         0.266076        -0.612294        -0.513187
 H        -2.316675        -0.397584         0.729785
 H        -1.634120        -0.870259         2.364010
 H        -4.038248         1.786105         1.378587
 H        -3.194711         3.163286         1.630720
 H        -0.547336         2.791953         0.502394
 H        -0.701198         2.676060         3.278225
 H        -1.005636         1.015725         4.042033
 H         1.111794         1.868598         2.073575
 H         0.935273         0.228603         2.757564
