19
Iteration:  3602charge 0 multiplicity 1
 O         0.546834        -0.106474         0.048143
 C        -0.333659         0.485839         0.996047
 C        -1.660918        -0.061762         1.500607
 C        -1.899674         1.461422         2.021352
 C        -3.053840         2.149057         1.231746
 O        -2.214938         1.984350         0.003875
 C        -1.009551         1.874271         0.753767
 C        -0.815367         1.534875         3.097159
 C         0.376966         1.046176         2.305884
 H         0.757108        -0.969839         0.425042
 H        -2.400359        -0.484847         0.802311
 H        -1.474461        -0.833309         2.283388
 H        -3.982183         1.433792         1.383153
 H        -3.363659         3.209532         1.417247
 H        -0.225525         2.769094         0.704097
 H        -0.823555         2.470830         3.584076
 H        -1.142604         0.787916         3.899876
 H         1.013527         1.835276         2.011137
 H         0.920474         0.256603         2.684698
