19
Iteration:  1519charge 0 multiplicity 1
 O         0.668277        -0.179465         0.174826
 C        -0.280650         0.550779         0.995254
 C        -1.636019         0.002152         1.510025
 C        -1.831164         1.414859         1.951357
 C        -3.041282         2.055709         1.340656
 O        -2.381945         1.904995         0.001004
 C        -1.081477         1.841935         0.595101
 C        -0.822945         1.731562         3.063140
 C         0.374884         1.021652         2.386774
 H         0.178041        -0.517767        -0.638810
 H        -2.359899        -0.179724         0.744823
 H        -1.539267        -0.785549         2.249428
 H        -4.027160         1.453884         1.378815
 H        -3.290565         3.003620         1.699749
 H        -0.373923         2.711826         0.376844
 H        -0.577492         2.794978         3.115784
 H        -1.064997         1.234745         4.043421
 H         1.414615         1.570543         2.180606
 H         0.720478         0.072277         2.844743
