19
Iteration:  2102
 O         0.651251        -0.211697         0.144317
 C        -0.257428         0.549801         0.944820
 C        -1.535917        -0.152280         1.534736
 C        -1.831317         1.353849         1.935675
 C        -3.105456         2.080329         1.304668
 O        -2.368889         2.003717         0.032223
 C        -1.086710         1.848358         0.681949
 C        -0.860414         1.795030         3.065301
 C         0.391474         1.015320         2.335385
 H         0.137639        -0.416193        -0.715006
 H        -2.327363        -0.502260         0.879409
 H        -1.401157        -0.801406         2.353613
 H        -4.054599         1.578252         1.403349
 H        -3.247970         3.110432         1.664292
 H        -0.621897         2.768387         0.684207
 H        -0.826076         2.888051         2.925465
 H        -0.776134         1.499184         4.100145
 H         1.288757         1.639709         2.144285
 H         0.579775         0.067390         3.018270
