19
Iteration:  1371charge 0 multiplicity 1
 O         0.672155        -0.119725         0.080138
 C        -0.380415         0.495096         0.993310
 C        -1.634047        -0.128947         1.581114
 C        -1.819274         1.492761         1.972652
 C        -3.118157         2.040641         1.334902
 O        -2.361622         1.930579        -0.025897
 C        -1.131909         1.770734         0.646675
 C        -0.771194         1.766394         2.989938
 C         0.426712         1.040790         2.322186
 H         1.461110        -0.251521         0.730421
 H        -2.330258        -0.332460         0.740504
 H        -1.788102        -0.914207         2.385269
 H        -4.019946         1.515685         1.491649
 H        -3.214025         3.095261         1.676591
 H        -0.512786         2.704975         0.715377
 H        -0.584951         2.875341         3.289295
 H        -1.115430         1.351660         3.930721
 H         1.317325         1.547257         2.035491
 H         0.789100         0.094764         2.948315
