19
Iteration:  1016
 O         0.648580        -0.050503         0.059341
 C        -0.312846         0.511986         0.985603
 C        -1.612107        -0.010064         1.717943
 C        -1.845849         1.538914         2.005886
 C        -3.141451         1.930341         1.295871
 O        -2.415701         1.882265        -0.032085
 C        -1.152323         1.738533         0.605677
 C        -0.687982         1.780446         3.062606
 C         0.394407         1.004468         2.258981
 H         1.117234        -0.880951         0.452784
 H        -2.205009        -0.384977         0.921621
 H        -1.322844        -0.700471         2.533369
 H        -3.920182         1.180286         1.398121
 H        -3.259921         3.002926         1.313206
 H        -0.510309         2.740493         0.449070
 H        -0.411672         2.836119         3.182479
 H        -0.947892         1.284956         4.127231
 H         1.126284         1.851437         2.048814
 H         0.733263         0.220641         2.851509
