19
Iteration:   252
 O         0.439558        -0.070137         0.061661
 C        -0.271552         0.634421         1.009756
 C        -1.429107        -0.094394         1.560474
 C        -1.800690         1.469153         1.937698
 C        -3.034635         2.065322         1.329445
 O        -2.373779         1.730373        -0.024972
 C        -1.039315         1.842115         0.660659
 C        -0.903390         1.641588         3.132813
 C         0.398430         1.140213         2.313701
 H         0.516388        -1.014438         0.259172
 H        -2.076578        -0.576247         0.769101
 H        -1.190590        -0.732511         2.401211
 H        -4.036005         1.573571         1.408880
 H        -3.010715         3.195665         1.444171
 H        -0.463193         2.809229         0.271089
 H        -0.776663         2.759671         3.333242
 H        -1.213317         1.265832         4.109396
 H         1.117910         1.906442         2.102205
 H         0.872790         0.257521         2.887243
