19
Iteration:   363charge 0 multiplicity 1
 O         0.636832        -0.135399         0.239449
 C        -0.310519         0.581954         0.990522
 C        -1.646687        -0.101790         1.560115
 C        -1.821878         1.477910         2.005304
 C        -3.030909         2.043334         1.292731
 O        -2.430691         1.863276        -0.075388
 C        -1.084818         1.817740         0.589967
 C        -0.756616         1.633159         3.152816
 C         0.394364         1.117299         2.261390
 H         0.608100         0.093513        -0.712444
 H        -2.266991        -0.549831         0.820838
 H        -1.640866        -0.775259         2.452732
 H        -4.024926         1.559977         1.344343
 H        -3.244759         3.090729         1.466672
 H        -0.517543         2.819244         0.456411
 H        -0.564658         2.621591         3.571260
 H        -0.901355         0.916789         4.001461
 H         1.112026         1.812140         1.886370
 H         1.059801         0.317088         2.768984
