19
Iteration:  4489charge 0 multiplicity 1
 O         0.550863        -0.298998         0.018415
 C        -0.273320         0.559270         0.948860
 C        -1.624180        -0.032433         1.481265
 C        -1.874443         1.450264         1.981708
 C        -2.977786         2.069801         1.255261
 O        -2.231347         2.234119         0.029320
 C        -0.979341         1.924042         0.670784
 C        -0.975491         1.511151         3.204315
 C         0.265592         0.934525         2.371813
 H         0.976913        -0.986566         0.492472
 H        -2.347616        -0.330272         0.695040
 H        -1.508563        -0.800640         2.212564
 H        -3.964296         1.528666         1.092305
 H        -2.915874         3.088151         1.671462
 H        -0.132736         2.741857         0.586657
 H        -0.748124         2.574332         3.413054
 H        -1.161408         0.760506         3.954368
 H         0.990121         1.771278         2.273927
 H         0.798351         0.092002         2.782460
