19
Iteration:  3358
 O         0.601377        -0.257609         0.245849
 C        -0.292089         0.553333         0.910042
 C        -1.591460        -0.038658         1.555891
 C        -1.824740         1.442617         1.971302
 C        -3.060104         2.035107         1.274768
 O        -2.403239         2.026184        -0.042527
 C        -0.987625         1.932860         0.662466
 C        -0.812840         1.539769         3.138634
 C         0.388060         1.074826         2.269134
 H         0.094203        -0.211873        -0.576746
 H        -2.321659        -0.518866         0.883566
 H        -1.337646        -0.714253         2.355942
 H        -4.005152         1.534821         1.198746
 H        -3.377391         3.083473         1.549151
 H        -0.476394         2.861973         0.544904
 H        -0.791965         2.624519         3.589614
 H        -1.158749         0.754084         3.826150
 H         1.144229         1.920745         2.102200
 H         1.067585         0.279875         2.801251
