19
Iteration:  2438
 O         0.490159        -0.194676         0.062542
 C        -0.255924         0.594594         0.961375
 C        -1.525718        -0.049513         1.523553
 C        -1.854322         1.452444         2.010476
 C        -3.101020         1.999925         1.227466
 O        -2.306693         1.933069        -0.048461
 C        -1.064393         1.863565         0.766729
 C        -0.818855         1.734450         3.151146
 C         0.429124         0.968931         2.379446
 H         0.053370        -0.094654        -0.850139
 H        -2.279113        -0.414015         0.774991
 H        -1.339715        -0.760757         2.402913
 H        -4.101703         1.485757         1.252327
 H        -3.029644         3.082270         1.514467
 H        -0.504020         2.889826         0.623825
 H        -0.619661         2.832073         3.290656
 H        -1.033299         1.239355         4.158603
 H         1.432935         1.544751         2.440363
 H         0.613674        -0.003482         2.835199
