19
Iteration:  3771
 O         0.627278        -0.183246         0.125104
 C        -0.308016         0.462102         0.961399
 C        -1.721332        -0.006724         1.454404
 C        -1.835856         1.486861         1.948046
 C        -3.011849         2.175209         1.285958
 O        -2.348027         2.010693        -0.032809
 C        -1.062063         1.969062         0.682461
 C        -0.764564         1.493016         3.140732
 C         0.352689         0.877308         2.362824
 H         1.323508        -0.460640         0.718621
 H        -2.465200        -0.288081         0.718229
 H        -1.655458        -0.867245         2.186904
 H        -4.042760         1.569956         1.224437
 H        -3.198373         3.243534         1.511543
 H        -0.594717         3.113529         0.513682
 H        -0.523161         2.564759         3.373653
 H        -1.206073         1.098452         4.038413
 H         1.149439         1.642335         2.305909
 H         0.790357         0.052665         2.807236
