19
Iteration:  2100charge 0 multiplicity 1
 O         0.643097        -0.224763         0.141632
 C        -0.253941         0.548095         0.948549
 C        -1.523961        -0.146394         1.522883
 C        -1.816730         1.350991         1.944926
 C        -3.101120         2.078950         1.303919
 O        -2.369655         2.012451         0.034507
 C        -1.096685         1.844228         0.680558
 C        -0.864305         1.793703         3.062568
 C         0.394811         1.025579         2.344752
 H         0.164049        -0.424721        -0.690002
 H        -2.318439        -0.537475         0.872402
 H        -1.382565        -0.826190         2.370604
 H        -4.138320         1.566013         1.344539
 H        -3.311588         3.124290         1.671254
 H        -0.568772         2.803349         0.744034
 H        -0.832166         2.894873         2.928254
 H        -0.778372         1.521964         4.091762
 H         1.208226         1.598608         2.127461
 H         0.566467         0.123065         2.937122
