19
Iteration:  2508charge 0 multiplicity 1
 O         0.664408        -0.182050         0.196207
 C        -0.286128         0.528778         0.913960
 C        -1.569832        -0.128936         1.509230
 C        -1.892171         1.359777         1.989746
 C        -2.962359         2.280294         1.353244
 O        -2.406653         1.900364         0.001288
 C        -1.062563         1.840093         0.641121
 C        -0.909886         1.595096         3.160407
 C         0.355683         1.106329         2.234573
 H         0.300172        -0.463857        -0.725125
 H        -2.308172        -0.531004         0.845326
 H        -1.214413        -0.793795         2.245395
 H        -4.119097         2.019896         1.366622
 H        -2.705804         3.302243         1.464043
 H        -0.534179         2.719080         0.734505
 H        -0.700741         2.602504         3.538677
 H        -1.191848         0.878750         3.920884
 H         1.023262         1.953378         1.964133
 H         1.086764         0.229676         2.773982
