19
Iteration:  2011
 O         0.612773        -0.062070         0.095891
 C        -0.217998         0.568105         0.987823
 C        -1.607794        -0.087704         1.557800
 C        -1.820294         1.416601         1.982460
 C        -2.958054         2.143456         1.330699
 O        -2.433666         1.802063         0.011144
 C        -1.077386         1.793508         0.665433
 C        -0.872967         1.697425         2.991507
 C         0.387096         0.994173         2.423846
 H         0.148928        -0.030706        -0.734355
 H        -2.320165        -0.432631         0.794516
 H        -1.495046        -0.788330         2.456852
 H        -4.127857         1.916809         1.374080
 H        -2.967638         3.262968         1.267745
 H        -0.525919         2.726469         0.557773
 H        -0.719713         2.793170         3.059907
 H        -1.026678         1.167228         3.925987
 H         1.253816         1.603798         2.237734
 H         0.759736         0.019691         2.988180
