19
Iteration:  4184
 O         0.622308        -0.132140         0.224081
 C        -0.336789         0.583753         0.944583
 C        -1.650909        -0.012944         1.390175
 C        -1.810956         1.519469         1.984184
 C        -3.033507         2.189927         1.227117
 O        -2.279571         2.078485        -0.003442
 C        -0.973146         1.896397         0.662852
 C        -0.883578         1.420071         3.127927
 C         0.276642         0.815302         2.408299
 H         0.164712        -0.850809        -0.330664
 H        -2.382067        -0.348096         0.640470
 H        -1.465939        -0.786166         2.178250
 H        -3.984320         1.849466         1.235273
 H        -3.099681         3.207444         1.392941
 H        -0.393595         2.753430         0.559442
 H        -0.527820         2.442671         3.527121
 H        -1.060694         0.821657         4.029920
 H         1.298919         1.398656         2.415468
 H         0.750196        -0.171779         2.793758
