19
Iteration:    15charge 0 multiplicity 1
 O         0.498768        -0.094311         0.143188
 C        -0.326368         0.606670         0.971758
 C        -1.418970        -0.096431         1.783872
 C        -1.856713         1.407103         1.977052
 C        -3.139263         1.998526         1.201185
 O        -2.401876         1.824794         0.015965
 C        -1.146645         1.735014         0.632429
 C        -0.744456         1.694023         3.013941
 C         0.466181         1.284642         2.164106
 H         1.363957        -0.250675         0.685962
 H        -2.197776        -0.542676         0.993758
 H        -1.159679        -0.856341         2.590602
 H        -4.130478         1.383552         1.127331
 H        -3.476783         3.018811         1.343427
 H        -0.499915         2.755837         0.417168
 H        -0.722228         2.611474         3.543458
 H        -0.856214         0.876344         3.941247
 H         1.379415         1.881205         2.155794
 H         0.570344         0.272817         2.628696
