19
Iteration:  2068
 O         0.567172        -0.234395         0.202388
 C        -0.262001         0.523560         1.009407
 C        -1.624798        -0.051938         1.550732
 C        -1.757501         1.402199         1.949639
 C        -3.129243         1.948561         1.305734
 O        -2.357251         2.064693        -0.002986
 C        -1.040288         1.905627         0.639042
 C        -0.835534         1.629735         3.098368
 C         0.456609         1.146814         2.260942
 H        -0.011765        -0.606535        -0.545229
 H        -2.339423        -0.467397         0.836994
 H        -1.602957        -0.666871         2.441199
 H        -3.921769         1.172862         1.004636
 H        -3.504084         2.978767         1.447035
 H        -0.442444         2.748822         0.691211
 H        -0.903295         2.709493         3.386171
 H        -0.857061         1.082677         4.061038
 H         1.244678         1.851971         1.863969
 H         1.130630         0.251559         2.773118
