19
Iteration:  3601
 O         0.546003        -0.102941         0.041288
 C        -0.327136         0.489265         0.996255
 C        -1.670219        -0.058153         1.505316
 C        -1.880834         1.469070         2.010707
 C        -3.051742         2.138494         1.231050
 O        -2.215611         1.980578         0.006645
 C        -1.017229         1.867603         0.758616
 C        -0.829527         1.536863         3.098209
 C         0.379246         1.052622         2.312155
 H         0.731046        -1.001235         0.419829
 H        -2.398102        -0.458872         0.813719
 H        -1.488052        -0.830735         2.266049
 H        -3.929893         1.434075         1.379734
 H        -3.369685         3.214537         1.438987
 H        -0.203174         2.785016         0.686550
 H        -0.826744         2.477091         3.591957
 H        -1.145374         0.785568         3.897499
 H         1.031447         1.792631         2.021457
 H         0.917796         0.210607         2.675614
