19
Iteration:  1368charge 0 multiplicity 1
 O         0.686079        -0.120727         0.092810
 C        -0.348410         0.503174         0.987535
 C        -1.640342        -0.138967         1.571916
 C        -1.823715         1.533249         1.965638
 C        -3.121315         2.063061         1.365653
 O        -2.377888         1.913278        -0.012771
 C        -1.124427         1.770023         0.644782
 C        -0.776998         1.759886         2.987033
 C         0.425706         1.028111         2.312749
 H         1.369293        -0.350487         0.750536
 H        -2.306736        -0.368121         0.789474
 H        -1.783438        -0.874144         2.338306
 H        -3.995717         1.387237         1.313074
 H        -3.169079         3.142256         1.628195
 H        -0.548901         2.660483         0.720733
 H        -0.572699         2.756016         3.303120
 H        -1.101597         1.306687         3.940805
 H         1.317777         1.663853         1.994498
 H         0.606498         0.164161         2.820585
