19
Iteration:  2147
 O         0.656348        -0.045171         0.114428
 C        -0.331050         0.576347         1.003641
 C        -1.699490        -0.011351         1.598419
 C        -1.845957         1.576136         2.050398
 C        -3.041338         2.124496         1.220687
 O        -2.408522         1.705782        -0.048151
 C        -1.043505         1.862480         0.662287
 C        -0.740743         1.600702         3.168409
 C         0.420239         0.985985         2.322798
 H         0.297785        -0.278519        -0.816809
 H        -2.307215        -0.473456         0.854663
 H        -1.535127        -0.720096         2.358073
 H        -4.032441         1.809632         1.309414
 H        -3.119403         3.218215         1.258340
 H        -0.463065         2.603142         0.303071
 H        -0.360085         2.493173         3.664229
 H        -1.144218         0.882144         3.882388
 H         1.125152         1.783435         2.033597
 H         0.791056        -0.074047         2.690874
