19
Iteration:   274
 O         0.525431        -0.098874        -0.073452
 C        -0.329156         0.521362         0.991761
 C        -1.651143         0.040225         1.668275
 C        -1.823773         1.512020         2.023462
 C        -3.073227         1.940851         1.217707
 O        -2.347512         1.806678        -0.019972
 C        -1.014847         1.754518         0.678316
 C        -0.779803         1.681195         3.147073
 C         0.442082         1.167150         2.342910
 H         1.268269        -0.599377         0.366690
 H        -2.345697        -0.274461         0.856191
 H        -1.657651        -0.758617         2.398470
 H        -3.923574         1.239225         1.106018
 H        -3.435807         2.968792         1.489283
 H        -0.463512         2.796862         0.624680
 H        -0.735164         2.703182         3.618117
 H        -1.035055         1.054315         4.009834
 H         1.027867         1.991149         1.995806
 H         1.043060         0.534946         3.096959
