19
Iteration:   807
 O         0.504207        -0.167581         0.052619
 C        -0.247217         0.564259         1.006586
 C        -1.488773        -0.021001         1.577632
 C        -1.875028         1.445976         2.003216
 C        -3.075366         1.988523         1.232151
 O        -2.381511         1.874443        -0.055610
 C        -1.079677         1.881857         0.675142
 C        -0.792999         1.758639         3.167131
 C         0.435114         1.015797         2.310474
 H         0.260198        -1.076726         0.132865
 H        -2.199346        -0.394791         0.779933
 H        -1.253255        -0.746747         2.368855
 H        -3.977991         1.348684         1.358537
 H        -3.214921         3.076435         1.513852
 H        -0.691967         2.918608         0.662738
 H        -0.688814         2.859674         3.224409
 H        -1.095320         1.308222         4.178261
 H         1.242214         1.829771         2.155488
 H         0.976309         0.348497         2.909560
