19
Iteration:  3067charge 0 multiplicity 1
 O         0.659149        -0.230731         0.269058
 C        -0.348435         0.534148         0.987349
 C        -1.606751        -0.122315         1.457561
 C        -1.816952         1.486004         1.944747
 C        -3.101920         2.055587         1.294792
 O        -2.418907         2.017084        -0.008445
 C        -1.116120         1.964258         0.630810
 C        -0.687178         1.689931         3.129960
 C         0.369958         0.929455         2.283639
 H         0.742170        -0.008801        -0.644536
 H        -2.375882        -0.460495         0.716864
 H        -1.287851        -0.898955         2.213515
 H        -3.863390         1.378074         1.444547
 H        -3.442172         3.062617         1.419759
 H        -0.652552         2.859456         0.613199
 H        -0.510659         2.756328         3.391006
 H        -0.923049         1.178237         4.127539
 H         1.239210         1.568983         2.011899
 H         0.751484        -0.069956         2.707666
