19
Iteration:  3707charge 0 multiplicity 1
 O         0.510893        -0.120646         0.025557
 C        -0.280819         0.511635         1.038671
 C        -1.661594        -0.035445         1.592474
 C        -1.852645         1.468125         2.021279
 C        -3.023845         2.114782         1.148108
 O        -2.199439         2.013670        -0.024148
 C        -1.022589         1.830522         0.784395
 C        -0.924117         1.599524         3.145457
 C         0.411457         0.927034         2.321386
 H         0.129890        -0.265915        -0.872122
 H        -2.382779        -0.311570         0.847535
 H        -1.448374        -0.839445         2.289569
 H        -3.792891         1.379963         1.150178
 H        -3.346265         3.080992         1.539793
 H        -0.412907         2.638000         0.706588
 H        -0.674651         2.667555         3.369907
 H        -1.081138         1.044168         4.077695
 H         1.240310         1.682882         2.250074
 H         0.872873         0.036186         2.908830
