19
Iteration:  3027charge 0 multiplicity 1
 O         0.638105        -0.157587         0.059151
 C        -0.233820         0.525298         0.978968
 C        -1.645219        -0.127452         1.525869
 C        -1.809196         1.471661         1.956528
 C        -3.019336         2.200147         1.322287
 O        -2.365397         1.867487         0.022816
 C        -1.031834         1.841790         0.679621
 C        -0.901937         1.626416         3.099716
 C         0.388387         1.015042         2.366483
 H        -0.022722        -0.250940        -0.711547
 H        -2.318776        -0.521329         0.766832
 H        -1.768250        -0.665215         2.417468
 H        -4.066051         1.710579         1.382994
 H        -3.112640         3.310624         1.498051
 H        -0.456872         2.873867         0.591223
 H        -0.693075         2.686374         3.434562
 H        -1.151049         1.034845         3.992109
 H         1.053193         1.766825         2.003512
 H         1.049452         0.444736         3.071414
