19
Iteration:   972
 O         0.485671        -0.094028        -0.083591
 C        -0.240845         0.555638         1.029071
 C        -1.435357        -0.086975         1.569396
 C        -1.822479         1.401483         2.074899
 C        -3.015885         2.145404         1.260087
 O        -2.396401         1.687042         0.011813
 C        -1.123551         1.773775         0.662838
 C        -0.824191         1.777963         3.125976
 C         0.382348         1.155142         2.382772
 H         0.607110        -1.026499         0.330464
 H        -2.174502        -0.247448         0.837828
 H        -1.484311        -0.760324         2.457501
 H        -3.953352         1.591082         1.183708
 H        -3.002874         3.254238         1.402826
 H        -0.851299         2.832527         0.243162
 H        -0.725042         2.856016         3.021885
 H        -1.088874         1.450897         4.241042
 H         1.185486         1.955875         2.312610
 H         0.851229         0.319275         2.763989
