19
Iteration:  4478charge 0 multiplicity 1
 O         0.469147        -0.219307         0.052303
 C        -0.303620         0.495708         0.991620
 C        -1.577605        -0.137960         1.476850
 C        -1.852576         1.358600         1.927853
 C        -2.977466         2.210340         1.231795
 O        -2.244801         2.256835        -0.028290
 C        -0.975576         1.872548         0.724421
 C        -0.962754         1.472918         3.174993
 C         0.372752         0.985857         2.367165
 H         0.894563        -0.880001         0.618423
 H        -2.176556        -0.581489         0.669317
 H        -1.435380        -0.837731         2.276727
 H        -4.005280         1.733053         1.191668
 H        -3.263383         3.203501         1.604243
 H        -0.294036         2.794928         0.543604
 H        -0.868118         2.479367         3.646588
 H        -1.232458         0.921931         4.075193
 H         1.182215         1.725162         2.239808
 H         0.763995         0.145052         2.915390
