19
Iteration:  2755
 O         0.538811        -0.132799         0.157119
 C        -0.326389         0.546800         0.956869
 C        -1.603612         0.004622         1.555685
 C        -1.784065         1.453161         1.977371
 C        -2.968758         2.075463         1.247660
 O        -2.340952         1.899627        -0.039063
 C        -1.045634         1.831372         0.656599
 C        -0.817390         1.554178         3.136508
 C         0.338965         1.085060         2.371618
 H         0.268500        -0.168752        -0.833662
 H        -2.419807        -0.223421         0.798954
 H        -1.545510        -0.810457         2.353422
 H        -3.873575         1.547787         1.493758
 H        -3.146320         3.178335         1.259709
 H        -0.480105         2.651684         0.470420
 H        -0.666156         2.519157         3.630362
 H        -0.954166         0.826656         3.967498
 H         1.227348         1.895624         2.271621
 H         0.742118         0.096883         2.785396
