19
Iteration:  4138
 O         0.535796        -0.111757         0.071261
 C        -0.354470         0.470232         1.006538
 C        -1.719960        -0.111361         1.440940
 C        -1.867783         1.348473         1.986723
 C        -2.983732         2.224133         1.212667
 O        -2.164180         2.089181         0.013651
 C        -0.982727         1.781237         0.749581
 C        -0.862644         1.611858         3.092563
 C         0.314189         0.862819         2.445572
 H         0.868922         0.658291        -0.443017
 H        -2.361541        -0.322373         0.553193
 H        -1.755821        -0.914335         2.164591
 H        -3.944591         1.760567         0.985895
 H        -3.187504         3.130562         1.631941
 H        -0.308798         2.568907         0.715241
 H        -0.767575         2.740503         3.166576
 H        -1.233101         1.294680         4.072337
 H         1.329081         1.521665         2.395427
 H         0.737079         0.060862         3.096826
