19
Iteration:  4706
 O         0.517044        -0.086709         0.107900
 C        -0.275953         0.453387         1.056535
 C        -1.701240         0.034799         1.486232
 C        -1.774587         1.547726         1.874118
 C        -3.062188         2.144863         1.239098
 O        -2.223214         2.029843        -0.051986
 C        -0.914902         1.901790         0.686371
 C        -0.916028         1.426181         3.161545
 C         0.357123         0.742955         2.447676
 H         0.245043         0.531952        -0.636395
 H        -2.295217        -0.167308         0.537146
 H        -1.952975        -0.665601         2.398644
 H        -3.935456         1.530400         1.240864
 H        -3.237309         3.160388         1.525344
 H        -0.404481         2.885520         0.421982
 H        -0.424189         2.379571         3.516093
 H        -1.323698         1.123423         4.120155
 H         1.084021         1.620629         2.419462
 H         0.837118        -0.121671         3.053502
