19
Iteration:   223
 O         0.740183        -0.139578         0.100583
 C        -0.246249         0.553245         0.991442
 C        -1.551659        -0.104754         1.595575
 C        -1.833745         1.453128         1.972183
 C        -3.078877         2.051257         1.330015
 O        -2.479693         1.852964        -0.076357
 C        -1.185083         1.821807         0.711617
 C        -0.816975         1.747218         3.092467
 C         0.460815         1.087566         2.298281
 H         0.254479        -0.707850        -0.486148
 H        -2.251659        -0.477709         0.857253
 H        -1.566533        -0.916068         2.400113
 H        -4.129293         1.662792         1.424039
 H        -3.174630         3.120152         1.545176
 H        -0.731659         2.756798         0.566522
 H        -0.697515         2.821115         3.100012
 H        -1.111747         1.435781         4.151370
 H         1.346839         1.707800         2.121517
 H         0.754803         0.258187         2.943240
