19
Iteration:  4332
 O         0.515157        -0.164248         0.042258
 C        -0.225279         0.471839         0.996050
 C        -1.590834        -0.144189         1.431388
 C        -1.863319         1.496170         1.930803
 C        -3.011916         2.266218         1.250908
 O        -2.318524         2.151848        -0.058099
 C        -0.976690         1.808571         0.743392
 C        -0.918219         1.511167         3.215356
 C         0.337080         0.919913         2.378182
 H         1.044575        -0.863283         0.513860
 H        -2.233044        -0.401114         0.564156
 H        -1.556023        -0.971017         2.175004
 H        -3.935986         1.828359         1.211195
 H        -2.972826         3.324317         1.513451
 H        -0.335715         2.750176         0.986508
 H        -0.790226         2.514062         3.680379
 H        -1.298753         0.731931         3.894630
 H         1.117776         1.666988         2.297706
 H         0.635988         0.061731         2.964395
