19
Iteration:  4716charge 0 multiplicity 1
 O         0.514098        -0.191503         0.013864
 C        -0.260760         0.453211         1.083080
 C        -1.684656         0.103137         1.445871
 C        -1.802908         1.589930         1.901157
 C        -3.028448         2.073801         1.238589
 O        -2.257220         2.083257        -0.028337
 C        -0.928123         1.885049         0.741114
 C        -0.913213         1.472796         3.128465
 C         0.362475         0.807376         2.537983
 H         0.547543         0.344977        -0.816274
 H        -2.297892        -0.290952         0.552744
 H        -1.825053        -0.634059         2.384469
 H        -3.868220         1.418219         1.155687
 H        -3.445949         3.069008         1.500992
 H        -0.213690         2.891874         0.745273
 H        -0.714096         2.543342         3.473046
 H        -1.450006         0.815195         3.844775
 H         1.250790         1.495547         2.370204
 H         0.812964        -0.152239         3.017413
