19
Iteration:  1221
 O         0.533128        -0.199971         0.198326
 C        -0.276550         0.566519         0.975592
 C        -1.537693        -0.070468         1.495191
 C        -1.806820         1.462518         1.959823
 C        -3.045572         2.120410         1.368848
 O        -2.435579         1.809460         0.023415
 C        -1.123416         1.836241         0.587063
 C        -0.869254         1.667943         3.092103
 C         0.457600         1.114445         2.293593
 H         1.528370         0.010682         0.176942
 H        -1.994014        -0.465336         0.593068
 H        -1.322510        -0.851980         2.260894
 H        -4.080014         1.586668         1.328684
 H        -3.189337         3.251443         1.384817
 H        -0.529548         2.731109         0.516092
 H        -0.675697         2.713091         3.120907
 H        -1.003033         1.220364         4.039027
 H         1.083578         1.888433         1.960020
 H         0.865087         0.175431         2.721410
