19
Iteration:  4080charge 0 multiplicity 1
 O         0.468359        -0.226389         0.117666
 C        -0.254119         0.535593         1.013203
 C        -1.600080         0.020604         1.287079
 C        -1.808045         1.480802         1.987563
 C        -3.010906         2.156297         1.300739
 O        -2.300450         2.091292        -0.021274
 C        -0.914311         1.867149         0.715054
 C        -0.937827         1.522238         3.212224
 C         0.320364         0.917486         2.365262
 H         1.306734        -0.610411         0.444111
 H        -2.138582        -0.064917         0.370239
 H        -1.686121        -0.891158         1.906546
 H        -3.909115         1.372837         1.234258
 H        -3.253752         3.081853         1.589826
 H        -0.249752         2.616861         0.406324
 H        -0.809947         2.366210         3.800404
 H        -1.368813         0.685240         3.823282
 H         1.073437         1.863409         2.219293
 H         0.640305         0.138411         2.999511
