19
Iteration:  2813
 O         0.635821        -0.129693         0.237951
 C        -0.344053         0.474788         0.963917
 C        -1.615360        -0.123830         1.550573
 C        -1.773382         1.354147         1.938196
 C        -3.002688         2.061177         1.346580
 O        -2.351611         2.059925        -0.032495
 C        -1.072801         1.880747         0.603053
 C        -0.862853         1.675902         3.126704
 C         0.363932         0.972135         2.264275
 H         0.303681        -0.170250        -0.670740
 H        -2.331283        -0.379735         0.746059
 H        -1.688914        -0.830680         2.396071
 H        -3.864731         1.477266         1.467571
 H        -3.246395         3.142753         1.542384
 H        -0.461032         2.774072         0.530070
 H        -0.725802         2.776975         3.163453
 H        -1.059858         1.296029         4.175635
 H         1.217415         1.746897         2.034305
 H         0.834008         0.132028         2.724328
