19
Iteration:  3941
 O         0.665282        -0.193239         0.158684
 C        -0.323670         0.424795         0.964044
 C        -1.704889        -0.106153         1.437933
 C        -1.855662         1.407263         1.927954
 C        -3.036513         2.149176         1.298752
 O        -2.245965         2.203853         0.039822
 C        -0.946039         1.872661         0.724374
 C        -0.961114         1.556486         3.127856
 C         0.340067         0.918752         2.341808
 H         0.341446        -0.252544        -0.731564
 H        -2.300512        -0.395725         0.588329
 H        -1.640739        -0.917446         2.185021
 H        -3.893256         1.543939         1.166565
 H        -3.182325         3.290617         1.437368
 H        -0.115754         2.739678         0.831785
 H        -0.736896         2.624868         3.381571
 H        -1.420628         1.052542         4.004305
 H         0.978420         1.681787         2.079305
 H         0.954981         0.180689         2.926156
