19
Iteration:   379charge 0 multiplicity 1
 O         0.652337        -0.068837         0.189484
 C        -0.355982         0.552018         0.960904
 C        -1.573536        -0.004736         1.720591
 C        -1.871524         1.448561         1.996669
 C        -3.103656         2.057133         1.169719
 O        -2.315998         1.854958        -0.000603
 C        -1.101192         1.837632         0.687646
 C        -0.798121         1.552432         3.102872
 C         0.429193         1.059592         2.186027
 H         0.116666        -0.503943        -0.576483
 H        -2.458582        -0.277612         1.046850
 H        -1.185708        -0.608949         2.524659
 H        -4.076100         1.476841         1.162870
 H        -3.277155         3.171208         1.387299
 H        -0.481759         2.707693         0.462873
 H        -0.731122         2.623860         3.388611
 H        -1.088705         0.948181         3.970017
 H         1.121872         1.970561         2.108203
 H         1.015909         0.271673         2.526363
