19
Iteration:  2065charge 0 multiplicity 1
 O         0.572072        -0.217870         0.202422
 C        -0.279638         0.501243         1.005318
 C        -1.649948        -0.031878         1.549185
 C        -1.761709         1.412788         1.955930
 C        -3.125760         1.954557         1.312577
 O        -2.358014         2.037089        -0.000055
 C        -1.036816         1.906539         0.632186
 C        -0.807342         1.611877         3.110150
 C         0.471506         1.157739         2.257396
 H         0.013727        -0.621298        -0.511139
 H        -2.331289        -0.492581         0.811763
 H        -1.576143        -0.626363         2.530681
 H        -3.892785         1.183158         0.874514
 H        -3.533933         3.005840         1.404364
 H        -0.355711         2.840266         0.685351
 H        -0.890873         2.666299         3.419688
 H        -1.008370         1.007907         4.012583
 H         1.208399         1.767320         1.942113
 H         1.057507         0.401645         2.637357
