19
Iteration:  3682
 O         0.520968        -0.164605         0.164152
 C        -0.295453         0.543125         1.056683
 C        -1.664303        -0.003231         1.463319
 C        -1.828977         1.456699         1.931185
 C        -3.084493         2.101544         1.234357
 O        -2.283520         1.972176        -0.082700
 C        -1.069454         1.938390         0.723534
 C        -0.699538         1.587801         3.143092
 C         0.354307         0.876675         2.371403
 H         0.855197         0.219640        -0.638164
 H        -2.381936        -0.344504         0.696657
 H        -1.533630        -0.764677         2.294769
 H        -4.053893         1.412549         1.213581
 H        -3.229642         3.028131         1.735151
 H        -0.493613         2.923761         0.644667
 H        -0.600439         2.658772         3.452366
 H        -0.963233         0.985110         4.001804
 H         1.360547         1.352018         2.291639
 H         0.530103        -0.012351         2.832619
