19
Iteration:  3879charge 0 multiplicity 1
 O         0.577640        -0.089919         0.009558
 C        -0.274506         0.509537         0.952488
 C        -1.714957         0.051062         1.513340
 C        -1.829495         1.524678         2.018975
 C        -3.021466         2.150703         1.222907
 O        -2.245294         1.992532        -0.018459
 C        -0.987454         1.867207         0.663800
 C        -0.869705         1.521622         3.192120
 C         0.284296         0.843960         2.422917
 H         1.143648        -0.704234         0.460544
 H        -2.249022        -0.250545         0.590462
 H        -1.670069        -0.798699         2.266798
 H        -4.009959         1.603359         1.340819
 H        -3.276435         3.163781         1.348175
 H        -0.535771         2.743989         0.449210
 H        -0.637784         2.482329         3.723412
 H        -1.200590         0.770344         3.886087
 H         1.268779         1.509369         2.375177
 H         0.644310        -0.185794         2.768221
