19
Iteration:   849
 O         0.639071        -0.158491         0.067352
 C        -0.249900         0.512846         0.951748
 C        -1.659873        -0.001417         1.651433
 C        -1.793723         1.531581         2.016793
 C        -3.065427         2.055129         1.276566
 O        -2.415024         1.753594        -0.018234
 C        -1.080880         1.797469         0.714619
 C        -0.848467         1.698371         3.118788
 C         0.422925         1.050645         2.291906
 H         0.723557         0.473349        -0.697286
 H        -2.475914        -0.326504         0.963976
 H        -1.555331        -0.553194         2.526305
 H        -4.048139         1.520277         1.313754
 H        -3.189076         3.179246         1.382670
 H        -0.385189         2.674164         0.369948
 H        -0.551613         2.755177         3.373297
 H        -1.069851         1.168489         4.087085
 H         1.072332         1.909188         1.889966
 H         1.031671         0.319415         2.657541
