19
Iteration:  1270charge 0 multiplicity 1
 O         0.532618        -0.109203         0.130754
 C        -0.267572         0.492816         1.044301
 C        -1.574175        -0.073795         1.653123
 C        -1.808561         1.499233         1.982106
 C        -3.131805         1.958092         1.222570
 O        -2.357831         1.913254        -0.008885
 C        -1.067970         1.802679         0.685623
 C        -0.773284         1.817487         3.017431
 C         0.400572         0.957280         2.301835
 H         0.655227         0.492446        -0.585357
 H        -2.232791        -0.489294         0.888153
 H        -1.348683        -0.780778         2.453411
 H        -3.943686         1.241913         1.111055
 H        -3.439289         2.942106         1.644385
 H        -0.420459         2.631074         0.335157
 H        -0.377352         2.840569         3.212712
 H        -1.040886         1.275572         3.969826
 H         1.195584         1.772102         2.111183
 H         0.660492         0.151166         2.940658
