19
Iteration:  1911
 O         0.616634        -0.133710         0.140655
 C        -0.241166         0.517065         1.018515
 C        -1.588314        -0.028983         1.550090
 C        -1.793114         1.421518         1.943343
 C        -3.009642         2.146356         1.331623
 O        -2.371707         1.841863        -0.017836
 C        -1.106232         1.848244         0.651671
 C        -0.920560         1.595448         3.108474
 C         0.424520         1.141523         2.268696
 H         0.014966        -0.708902        -0.353642
 H        -2.402337        -0.358679         0.825502
 H        -1.363668        -0.962352         2.181695
 H        -4.016292         1.642358         1.587817
 H        -3.045149         3.149592         1.614343
 H        -0.480075         2.715351         0.454393
 H        -0.781826         2.614135         3.470230
 H        -1.108284         0.956778         3.971798
 H         0.927514         1.962713         1.839270
 H         0.989526         0.355289         2.886719
