19
Iteration:   461
 O         0.642505        -0.072180         0.095127
 C        -0.355563         0.540380         1.038832
 C        -1.630757        -0.014883         1.641171
 C        -1.879627         1.431491         1.982816
 C        -3.077968         2.059170         1.187989
 O        -2.458613         1.962826        -0.042454
 C        -1.079696         1.771798         0.641254
 C        -0.680769         1.635769         3.096193
 C         0.395810         0.975383         2.276189
 H         1.476788        -0.098273         0.595798
 H        -2.221484        -0.586647         0.966917
 H        -1.563880        -0.674456         2.549372
 H        -4.018571         1.464133         1.224062
 H        -3.288514         3.065578         1.610616
 H        -0.462264         2.603408         0.509334
 H        -0.503964         2.672712         3.363904
 H        -0.978473         1.022363         3.975143
 H         1.123795         1.762580         2.039518
 H         1.022292         0.122568         2.851848
