19
Iteration:  2563charge 0 multiplicity 1
 O         0.644446        -0.173048         0.122214
 C        -0.287573         0.521390         0.985714
 C        -1.651635         0.013883         1.577799
 C        -1.840735         1.494466         2.012128
 C        -3.093250         1.992397         1.246904
 O        -2.298028         1.968361         0.014796
 C        -1.101146         1.921102         0.729221
 C        -0.775557         1.652763         3.097624
 C         0.365602         0.957009         2.254625
 H         0.236654        -0.282908        -0.747084
 H        -2.349202        -0.333201         0.822338
 H        -1.658402        -0.680990         2.372721
 H        -4.047771         1.316164         1.232247
 H        -3.497945         2.927577         1.350570
 H        -0.385633         2.683646         0.491899
 H        -0.372700         2.670823         3.269961
 H        -1.035852         1.213076         4.062584
 H         1.265229         1.569366         2.194567
 H         0.753862        -0.050256         2.826436
