19
Iteration:  4909
 O         0.633214        -0.280713         0.221428
 C        -0.272262         0.534890         0.986804
 C        -1.703659         0.054748         1.400290
 C        -1.823626         1.484654         1.956957
 C        -3.022710         2.189282         1.270927
 O        -2.322582         2.029861         0.006156
 C        -0.984957         1.909004         0.688373
 C        -0.873036         1.499152         3.163514
 C         0.334916         0.870209         2.328138
 H         0.685133         0.012872        -0.729567
 H        -2.299742        -0.009415         0.472352
 H        -2.069685        -0.748422         1.939387
 H        -4.020283         1.691004         1.213329
 H        -3.118612         3.223312         1.410855
 H        -0.441920         2.915797         0.709336
 H        -0.523773         2.471785         3.679936
 H        -1.150148         0.839530         4.092916
 H         1.164524         1.553157         2.247215
 H         0.786527        -0.051595         2.701772
