19
Iteration:   787
 O         0.535776        -0.251345        -0.013719
 C        -0.243935         0.562314         0.923133
 C        -1.545988        -0.093526         1.535109
 C        -1.797506         1.380041         1.920243
 C        -3.086351         2.021197         1.359537
 O        -2.362560         1.936118         0.067474
 C        -1.031450         1.825435         0.741070
 C        -0.873702         1.795296         2.995867
 C         0.398485         1.203390         2.401648
 H         0.827775        -1.073744         0.455683
 H        -2.315174        -0.337793         0.723347
 H        -1.580178        -0.827130         2.437832
 H        -3.954791         1.363710         1.316827
 H        -3.224777         3.068633         1.631830
 H        -0.607268         2.698544         0.364906
 H        -0.858314         2.871262         3.068811
 H        -1.151131         1.234675         3.938576
 H         1.330123         1.824673         2.579765
 H         0.762235         0.283310         3.006820
