19
Iteration:   488charge 0 multiplicity 1
 O         0.634888        -0.209930         0.095538
 C        -0.365600         0.551801         0.972143
 C        -1.611232        -0.036722         1.557999
 C        -1.821371         1.468574         1.975001
 C        -3.007934         2.131872         1.331870
 O        -2.371611         1.835737        -0.012526
 C        -1.114703         1.779005         0.659601
 C        -0.855541         1.620445         3.125130
 C         0.405034         1.144329         2.227044
 H         1.442806         0.198124         0.408344
 H        -2.298889        -0.347656         0.734478
 H        -1.666167        -0.811971         2.301545
 H        -3.901620         1.549632         1.546836
 H        -3.073479         3.178540         1.582943
 H        -0.411224         2.722511         0.582464
 H        -0.779245         2.559751         3.725183
 H        -1.194283         0.790995         3.745687
 H         0.967205         2.111813         2.004783
 H         0.988574         0.505565         2.759222
