19
Iteration:  4726charge 0 multiplicity 1
 O         0.502358        -0.284516         0.018983
 C        -0.237874         0.549129         0.984862
 C        -1.664864         0.040323         1.443582
 C        -1.806461         1.480452         1.970728
 C        -3.022560         2.080574         1.208514
 O        -2.233112         2.128810        -0.017500
 C        -0.951403         1.897160         0.774649
 C        -0.930356         1.558247         3.168079
 C         0.347341         0.858296         2.473240
 H         0.599893         0.321806        -0.719385
 H        -2.408097        -0.114054         0.571365
 H        -1.687903        -0.871138         2.191134
 H        -3.777544         1.307029         1.192178
 H        -3.426441         3.127991         1.387919
 H        -0.201439         2.891489         0.692539
 H        -0.847600         2.497606         3.810475
 H        -1.277884         0.801949         3.928935
 H         1.282541         1.473521         2.493590
 H         0.470220        -0.121882         3.053140
