19
Iteration:   610charge 0 multiplicity 1
 O         0.532821        -0.307284         0.088013
 C        -0.217251         0.607156         0.903036
 C        -1.399247        -0.011933         1.482370
 C        -1.790450         1.430246         1.983563
 C        -3.001034         2.155733         1.331994
 O        -2.471815         1.770867        -0.025451
 C        -1.098033         1.870537         0.685639
 C        -0.899411         1.681720         3.148360
 C         0.316334         1.122912         2.417812
 H         1.072010         0.046354        -0.678785
 H        -1.943059        -0.331278         0.618845
 H        -1.339077        -0.834016         2.210274
 H        -4.006298         1.800083         1.408225
 H        -2.943435         3.218559         1.567136
 H        -0.679049         2.941233         0.656802
 H        -0.850554         2.706171         3.575291
 H        -1.093049         1.036396         3.997538
 H         1.120996         1.913839         2.332155
 H         0.582544         0.186761         2.789512
