19
Iteration:   476charge 0 multiplicity 1
 O         0.600907        -0.064711         0.187960
 C        -0.286576         0.465897         0.978192
 C        -1.711790        -0.107587         1.657912
 C        -1.800101         1.487216         1.938383
 C        -3.080123         2.107975         1.318985
 O        -2.374894         1.903417        -0.050273
 C        -1.085475         1.810048         0.603535
 C        -0.812014         1.517947         3.108481
 C         0.437168         1.103889         2.215695
 H         1.542372         0.174230         0.454049
 H        -2.524843        -0.381738         0.941558
 H        -1.587254        -0.740876         2.522161
 H        -4.071670         1.612194         1.371679
 H        -3.270237         3.153800         1.353697
 H        -0.503292         2.796896         0.292344
 H        -0.595048         2.532954         3.484703
 H        -0.922527         0.879621         4.023368
 H         1.126621         1.944324         1.825449
 H         1.084563         0.370528         2.583543
