19
Iteration:  4125charge 0 multiplicity 1
 O         0.465626        -0.146002         0.094224
 C        -0.345248         0.514218         1.015800
 C        -1.642695        -0.118784         1.494990
 C        -1.866478         1.469088         1.966673
 C        -2.996581         2.165688         1.169741
 O        -2.164404         2.084582        -0.018263
 C        -0.983398         1.871303         0.755959
 C        -0.919180         1.554149         3.213423
 C         0.342003         0.864741         2.352926
 H         1.196219         0.428735        -0.151319
 H        -2.235344        -0.408565         0.621850
 H        -1.595348        -0.916659         2.227323
 H        -4.015649         1.637303         0.959891
 H        -3.067803         3.167694         1.339840
 H        -0.359965         2.718531         0.779933
 H        -0.692028         2.582051         3.469308
 H        -1.051561         0.948305         4.120660
 H         1.263642         1.523041         2.079015
 H         0.508580        -0.149522         2.618360
