19
Iteration:  3721
 O         0.526919        -0.097368        -0.031696
 C        -0.338769         0.478033         0.960662
 C        -1.651705        -0.081771         1.574153
 C        -1.835406         1.409828         1.960553
 C        -2.997278         2.043920         1.271122
 O        -2.171230         2.022313        -0.047350
 C        -0.955992         1.843976         0.748244
 C        -0.858032         1.644405         3.172045
 C         0.310232         1.037185         2.417157
 H        -0.201671        -0.627537        -0.445202
 H        -2.383655        -0.457910         0.829503
 H        -1.772715        -0.699961         2.439205
 H        -3.950934         1.694633         1.104169
 H        -3.107143         3.146042         1.401866
 H        -0.334627         2.683990         0.839684
 H        -0.797627         2.623757         3.597002
 H        -1.199384         0.963497         4.012878
 H         1.109105         1.678288         2.114283
 H         0.716421         0.085118         3.030146
