19
Iteration:  1834charge 0 multiplicity 1
 O         0.519231        -0.168861         0.098033
 C        -0.281286         0.596325         0.957471
 C        -1.532725         0.023725         1.542166
 C        -1.851321         1.401676         2.079202
 C        -3.073279         1.995069         1.238455
 O        -2.342379         1.865974        -0.025440
 C        -1.031255         1.901199         0.595411
 C        -0.813336         1.727986         3.158944
 C         0.425174         1.035212         2.367654
 H        -0.011367        -0.460388        -0.605655
 H        -2.153606        -0.319268         0.626663
 H        -1.633109        -0.862016         2.260081
 H        -3.834784         1.213013         1.314005
 H        -3.320881         2.992126         1.456326
 H        -0.421250         2.792993         0.482044
 H        -0.775780         2.782964         3.485318
 H        -1.064789         1.262902         4.096110
 H         1.304857         1.707668         2.415462
 H         0.814347        -0.045340         2.947928
