19
Iteration:  1774
 O         0.698036        -0.161358         0.197433
 C        -0.280142         0.435348         0.959922
 C        -1.595323        -0.069566         1.525126
 C        -1.831599         1.359652         1.943968
 C        -3.007807         2.109711         1.349936
 O        -2.458611         1.940550        -0.032041
 C        -1.087962         1.840578         0.595786
 C        -0.818888         1.736588         3.122238
 C         0.363772         1.056844         2.330413
 H         0.473770        -0.454855        -0.705929
 H        -2.311703        -0.277935         0.756992
 H        -1.569622        -0.837971         2.290226
 H        -4.036324         1.681899         1.570763
 H        -3.173407         3.152298         1.551666
 H        -0.532698         2.843839         0.552201
 H        -0.632512         2.782135         3.410205
 H        -1.064492         1.122268         4.049669
 H         1.029358         1.882377         1.986431
 H         0.918671         0.394371         2.876599
