19
Iteration:  3766
 O         0.609619        -0.182662         0.101345
 C        -0.274002         0.469947         0.985780
 C        -1.707650        -0.012477         1.470080
 C        -1.868638         1.490944         1.914319
 C        -3.043531         2.178695         1.266372
 O        -2.321787         1.996864        -0.014443
 C        -1.058368         1.969794         0.691438
 C        -0.771103         1.512482         3.136232
 C         0.358473         0.914682         2.346148
 H         1.233601        -0.690858         0.695091
 H        -2.417842        -0.277472         0.656289
 H        -1.579510        -0.884410         2.121924
 H        -4.000617         1.726399         1.326938
 H        -3.127763         3.231156         1.588487
 H        -0.695826         2.884150         0.637697
 H        -0.547737         2.533915         3.416795
 H        -1.125576         0.994615         4.068762
 H         1.152732         1.673432         2.434438
 H         0.714671        -0.112563         2.841126
