19
Iteration:  2392
 O         0.711229        -0.089971         0.169512
 C        -0.393567         0.458655         0.913967
 C        -1.658305        -0.044457         1.613107
 C        -1.835142         1.399436         2.024512
 C        -2.954313         2.246087         1.264634
 O        -2.400086         1.885446        -0.005556
 C        -1.101418         1.773094         0.598880
 C        -0.820749         1.550500         3.208190
 C         0.394998         1.091447         2.260324
 H         0.485740        -0.493470        -0.729908
 H        -2.383383        -0.265023         0.760438
 H        -1.554396        -0.881312         2.380389
 H        -3.896906         1.683814         1.296814
 H        -3.067991         3.404360         1.451695
 H        -0.617962         2.846736         0.399283
 H        -0.727721         2.592265         3.614017
 H        -1.068558         0.754525         4.004922
 H         1.070571         1.939304         1.913424
 H         1.040532         0.381936         2.600569
