19
Iteration:  3001
 O         0.534590        -0.009723         0.113328
 C        -0.374729         0.618239         1.018008
 C        -1.651657        -0.099990         1.652928
 C        -1.904996         1.361836         2.130188
 C        -2.964859         2.100995         1.154322
 O        -2.262478         1.924278        -0.061723
 C        -1.048407         1.853882         0.628685
 C        -0.805366         1.576175         3.143317
 C         0.433110         0.996526         2.258422
 H        -0.088463        -0.690603        -0.303456
 H        -2.384666        -0.414470         0.889518
 H        -1.522343        -0.920066         2.423121
 H        -3.873630         1.612214         1.182304
 H        -3.093350         3.150411         1.309730
 H        -0.471774         2.686797         0.586394
 H        -0.733989         2.658069         3.386301
 H        -0.862556         1.026850         4.157442
 H         1.268883         1.669920         1.851961
 H         1.046605         0.093380         2.773224
