19
Iteration:   761charge 0 multiplicity 1
 O         0.595859        -0.122431         0.105061
 C        -0.319311         0.529874         1.048638
 C        -1.596232        -0.141555         1.609101
 C        -1.803244         1.393242         1.943993
 C        -3.039880         2.043634         1.310055
 O        -2.419582         1.987647        -0.032005
 C        -1.108160         1.797028         0.619112
 C        -0.772525         1.720306         3.098720
 C         0.356559         1.033642         2.291919
 H         1.394556        -0.455996         0.546469
 H        -2.287130        -0.372130         0.807485
 H        -1.572719        -0.750613         2.462475
 H        -4.003556         1.484894         1.192856
 H        -3.179061         3.141501         1.575361
 H        -0.593698         2.705526         0.294169
 H        -0.515330         2.827910         3.124032
 H        -0.951415         1.255161         4.099469
 H         1.101896         1.820284         1.896553
 H         1.005898         0.374393         2.683771
