19
Iteration:  2822
 O         0.617218        -0.109501         0.201807
 C        -0.333978         0.543946         0.984819
 C        -1.625808        -0.092000         1.539616
 C        -1.809535         1.438707         1.958062
 C        -3.046202         2.015114         1.281806
 O        -2.344144         2.064531         0.043783
 C        -1.020196         1.830448         0.634012
 C        -0.795594         1.643753         3.007845
 C         0.373911         0.957625         2.329513
 H         0.104418        -0.420826        -0.563951
 H        -2.425721        -0.464522         0.807636
 H        -1.610141        -0.815877         2.416742
 H        -3.863502         1.362022         1.380428
 H        -3.462013         2.946373         1.466043
 H        -0.389348         2.618540         0.583314
 H        -0.624737         2.730967         3.060550
 H        -1.248943         1.349652         3.960169
 H         1.323038         1.707990         2.290536
 H         0.757333         0.050647         2.757263
