19
Iteration:  4729
 O         0.493361        -0.298350         0.039142
 C        -0.246234         0.565892         0.946519
 C        -1.650690         0.002659         1.442543
 C        -1.813157         1.452967         1.980094
 C        -3.024760         2.091010         1.202141
 O        -2.209358         2.137696        -0.012505
 C        -0.951965         1.914845         0.769494
 C        -0.936876         1.566888         3.201698
 C         0.334699         0.873451         2.440316
 H         0.618034         0.315992        -0.690897
 H        -2.356883        -0.061358         0.599260
 H        -1.659913        -0.904195         2.137003
 H        -3.818868         1.350597         1.184566
 H        -3.385485         3.056396         1.417521
 H        -0.324065         2.849089         0.661791
 H        -0.812625         2.472704         3.818544
 H        -1.211437         0.882013         4.006100
 H         1.290297         1.477976         2.536384
 H         0.424199        -0.088439         3.019122
