19
Iteration:  4847charge 0 multiplicity 1
 O         0.508934        -0.062994        -0.051239
 C        -0.318813         0.448936         0.947724
 C        -1.704073        -0.123601         1.498556
 C        -1.843893         1.453903         1.990069
 C        -3.031415         2.133331         1.136585
 O        -2.136396         2.113317         0.000123
 C        -0.961638         1.821680         0.751225
 C        -0.858298         1.639236         3.230776
 C         0.315986         0.880004         2.489605
 H         0.364837        -1.037953        -0.243093
 H        -2.399992        -0.388505         0.672737
 H        -1.757472        -0.908431         2.371620
 H        -3.950783         1.539820         1.090153
 H        -3.308874         3.225219         1.497901
 H        -0.307064         2.706165         0.764523
 H        -0.668736         2.661642         3.673447
 H        -1.192852         1.216727         4.176731
 H         1.140927         1.561820         2.196073
 H         0.786331        -0.021986         2.987857
