19
Iteration:  3784charge 0 multiplicity 1
 O         0.620362        -0.185147         0.184414
 C        -0.351440         0.540632         0.944007
 C        -1.695285         0.003946         1.438517
 C        -1.773468         1.495810         1.962429
 C        -3.013784         2.120137         1.292458
 O        -2.368807         2.066533        -0.021925
 C        -1.033882         1.838628         0.655751
 C        -0.859281         1.575249         3.144355
 C         0.358964         0.815388         2.318885
 H         1.513653         0.125383         0.522051
 H        -2.419980        -0.135610         0.644454
 H        -1.763843        -0.672497         2.257570
 H        -3.944676         1.520525         1.378659
 H        -3.256463         3.190856         1.558980
 H        -0.175535         2.725312         0.552800
 H        -0.588896         2.571555         3.476004
 H        -1.075458         0.922089         4.012347
 H         1.144951         1.487518         2.000651
 H         0.788221        -0.123141         2.827291
