19
Iteration:  2069charge 0 multiplicity 1
 O         0.564983        -0.241111         0.200204
 C        -0.257556         0.531759         1.009790
 C        -1.613834        -0.059043         1.552640
 C        -1.761542         1.400492         1.946274
 C        -3.129396         1.945842         1.299866
 O        -2.355919         2.073747        -0.003811
 C        -1.043901         1.901358         0.643894
 C        -0.843030         1.637772         3.094817
 C         0.452381         1.138470         2.263208
 H         0.002442        -0.586786        -0.529569
 H        -2.339997        -0.451846         0.841000
 H        -1.608208        -0.690310         2.405923
 H        -3.918326         1.191543         1.078542
 H        -3.494931         2.958352         1.475168
 H        -0.459719         2.746241         0.684463
 H        -0.894497         2.716747         3.370985
 H        -0.815051         1.102746         4.069912
 H         1.255704         1.897379         1.841152
 H         1.127833         0.228387         2.810537
