19
Iteration:  4310charge 0 multiplicity 1
 O         0.562684        -0.119611         0.062396
 C        -0.278648         0.598300         0.964124
 C        -1.736702         0.059909         1.467569
 C        -1.845336         1.458275         1.949364
 C        -2.977530         2.203818         1.261321
 O        -2.231133         1.973829         0.014499
 C        -0.989313         1.948070         0.657527
 C        -0.896432         1.434025         3.162364
 C         0.300268         0.784609         2.409827
 H         1.172539        -0.648446         0.588926
 H        -2.429569        -0.307228         0.683616
 H        -1.576453        -0.725566         2.213607
 H        -3.881182         1.723232         1.284684
 H        -3.002181         3.293553         1.426769
 H        -0.411993         2.960520         0.516158
 H        -0.675989         2.489453         3.324068
 H        -1.277159         0.933451         4.076631
 H         1.190813         1.360855         2.295906
 H         0.504888        -0.195059         2.800510
