19
Iteration:   689charge 0 multiplicity 1
 O         0.443352        -0.195727        -0.018358
 C        -0.190024         0.520333         1.014517
 C        -1.515400        -0.110703         1.603801
 C        -1.813712         1.452265         1.961363
 C        -3.049170         1.957138         1.317109
 O        -2.362443         1.935421         0.013898
 C        -1.066963         1.870606         0.675267
 C        -0.938673         1.777558         3.039875
 C         0.408511         1.096135         2.360421
 H         1.424537        -0.406282         0.052256
 H        -1.943462        -0.403392         0.590197
 H        -1.515095        -0.824689         2.487916
 H        -4.038594         1.481496         1.287759
 H        -3.202422         3.034686         1.566138
 H        -0.437973         2.876800         0.649640
 H        -0.728222         2.812180         3.221690
 H        -1.145589         1.259781         4.003126
 H         1.310940         1.737681         2.354459
 H         0.790653         0.224898         3.094369
