19
Iteration:  1902charge 0 multiplicity 1
 O         0.641962        -0.072065         0.175730
 C        -0.330521         0.520819         1.001363
 C        -1.588067        -0.129225         1.562647
 C        -1.836246         1.459814         1.949316
 C        -2.987744         2.159390         1.343322
 O        -2.399318         1.859691        -0.027147
 C        -1.102278         1.794237         0.656221
 C        -0.847503         1.615558         3.096808
 C         0.388147         1.083607         2.266834
 H         0.315451        -0.599729        -0.565158
 H        -2.303221        -0.373818         0.773373
 H        -1.516985        -0.905057         2.361633
 H        -3.892744         1.711538         1.248289
 H        -3.021372         3.188844         1.411521
 H        -0.665042         2.751452         0.603836
 H        -0.682553         2.677403         3.376099
 H        -0.912555         1.107838         4.068397
 H         1.124399         1.837933         1.900449
 H         1.155825         0.340535         2.841863
