19
Iteration:  4761
 O         0.509517        -0.231503         0.188427
 C        -0.300814         0.488224         1.004808
 C        -1.678969        -0.117236         1.431740
 C        -1.913588         1.328995         1.907041
 C        -2.964011         2.207490         1.260028
 O        -2.206676         2.206491        -0.001006
 C        -1.000515         1.877108         0.804170
 C        -0.914800         1.508958         3.024720
 C         0.371226         0.916326         2.324168
 H         1.136357         0.407056        -0.172224
 H        -2.325295        -0.387134         0.559729
 H        -1.671260        -0.977498         2.247368
 H        -3.941469         1.743530         1.250364
 H        -3.083946         3.220904         1.689339
 H        -0.511995         2.983260         0.883125
 H        -0.746166         2.603844         3.264321
 H        -1.116540         0.866550         3.902175
 H         1.202091         1.701711         2.247822
 H         0.862853         0.107966         2.959777
