19
Iteration:  2975charge 0 multiplicity 1
 O         0.551698        -0.144415         0.069299
 C        -0.307221         0.549603         0.980118
 C        -1.558101        -0.000681         1.577596
 C        -1.796602         1.509181         1.948256
 C        -3.095538         1.990432         1.238718
 O        -2.297938         1.975641        -0.015850
 C        -1.049433         1.834883         0.744547
 C        -0.823439         1.663100         3.093121
 C         0.395593         0.956064         2.368663
 H        -0.132631        -0.583649        -0.527317
 H        -2.301255        -0.315802         0.817787
 H        -1.434319        -0.762278         2.413332
 H        -3.981780         1.257345         1.358556
 H        -3.371196         3.046967         1.403371
 H        -0.457624         2.792969         0.856397
 H        -0.629362         2.695166         3.316757
 H        -1.069133         1.221048         4.010240
 H         1.287918         1.598171         2.122554
 H         0.686335         0.114191         2.870887
