19
Iteration:   445charge 0 multiplicity 1
 O         0.576389        -0.123359         0.032394
 C        -0.244688         0.530740         0.950903
 C        -1.558901        -0.115134         1.582760
 C        -1.795315         1.481999         1.995316
 C        -3.128240         2.020740         1.328262
 O        -2.356961         1.924312        -0.038092
 C        -1.130257         1.846701         0.690958
 C        -0.844904         1.764552         3.090965
 C         0.416364         0.974775         2.336733
 H         1.300361        -0.547539         0.455713
 H        -2.403954        -0.333942         0.859408
 H        -1.420608        -0.877030         2.338631
 H        -3.995429         1.366855         1.257972
 H        -3.280315         3.129750         1.405520
 H        -0.539407         2.851264         0.670282
 H        -0.704887         2.892912         3.189690
 H        -1.033082         1.373933         4.084547
 H         1.338947         1.590442         2.193850
 H         0.490403         0.076680         2.829349
