19
Iteration:  4197charge 0 multiplicity 1
 O         0.621297        -0.157107         0.215705
 C        -0.312414         0.540077         0.993918
 C        -1.705341         0.040272         1.432363
 C        -1.820212         1.517394         1.915480
 C        -2.988945         2.176369         1.253095
 O        -2.279504         2.054700        -0.090039
 C        -1.005051         1.975470         0.726571
 C        -0.849268         1.387235         3.231236
 C         0.344990         0.842077         2.299181
 H         0.236555        -0.988687         0.009846
 H        -2.346962        -0.109365         0.562771
 H        -1.806286        -0.763532         2.226252
 H        -3.819210         1.574799         1.225448
 H        -3.243390         3.213336         1.550911
 H        -0.363571         2.927580         0.661803
 H        -0.658492         2.324193         3.793290
 H        -1.408898         0.657841         3.861713
 H         1.054344         1.600917         2.135802
 H         0.764968        -0.144123         2.650164
