19
Iteration:  1280
 O         0.531101        -0.104690         0.115611
 C        -0.380825         0.506784         1.030409
 C        -1.576023        -0.076874         1.677113
 C        -1.858335         1.472399         1.996674
 C        -3.028263         1.933833         1.244403
 O        -2.343377         1.913663        -0.077083
 C        -1.036330         1.797376         0.722553
 C        -0.739089         1.747186         3.058657
 C         0.385909         1.091807         2.296143
 H         0.464473         0.295983        -0.781443
 H        -2.276168        -0.527070         0.963149
 H        -1.481222        -0.758711         2.490235
 H        -3.890845         1.198220         1.104943
 H        -3.442162         2.996384         1.262982
 H        -0.446864         2.707887         0.773963
 H        -0.710357         2.819374         3.291161
 H        -0.799671         1.306262         4.103656
 H         1.456213         1.470531         1.952079
 H         0.750515         0.266821         2.825756
