19
Iteration:  3227
 O         0.553496        -0.228985         0.182474
 C        -0.313875         0.530834         0.971056
 C        -1.561890        -0.129944         1.490050
 C        -1.858282         1.386199         1.934953
 C        -3.001329         2.096633         1.304494
 O        -2.353879         2.033500        -0.034622
 C        -1.076859         1.804027         0.688649
 C        -0.820897         1.691312         3.118833
 C         0.449512         1.083799         2.365064
 H         0.166588        -0.023233        -0.704050
 H        -2.291548        -0.324286         0.690838
 H        -1.489500        -1.007612         2.149182
 H        -3.963821         1.509071         1.148421
 H        -3.172909         3.057112         1.710265
 H        -0.665885         2.742630         0.723422
 H        -0.796235         2.776973         3.378161
 H        -1.020249         1.163957         4.038792
 H         1.201227         1.831837         1.936985
 H         0.879547         0.235018         3.000567
