19
Iteration:   336
 O         0.630696        -0.296018         0.106063
 C        -0.170701         0.575449         0.984280
 C        -1.579979        -0.042132         1.489541
 C        -1.857585         1.383908         1.940876
 C        -3.050323         2.098943         1.408820
 O        -2.469781         1.866577         0.085604
 C        -1.059004         1.806351         0.544534
 C        -0.934191         1.780701         3.049935
 C         0.420565         1.100708         2.410790
 H         1.296906         0.282727        -0.394026
 H        -2.000200        -0.360432         0.474508
 H        -1.558325        -0.894384         2.180166
 H        -3.991005         1.554410         1.378755
 H        -3.312036         3.122938         1.732087
 H        -0.624250         2.725349         0.453383
 H        -0.767012         2.884365         3.076279
 H        -1.217001         1.413185         4.016089
 H         1.293513         1.782476         2.113345
 H         0.908151         0.291914         2.874642
