19
Iteration:  3266
 O         0.617304        -0.047481         0.063995
 C        -0.295163         0.521059         1.008535
 C        -1.640684         0.016938         1.570697
 C        -1.783565         1.579339         2.017896
 C        -3.079065         2.145043         1.168721
 O        -2.350815         1.805308        -0.052213
 C        -1.100817         1.831415         0.689656
 C        -0.795785         1.568121         3.209431
 C         0.410180         0.955853         2.348213
 H         0.248997        -0.716158        -0.556973
 H        -2.455431        -0.306201         0.942285
 H        -1.489726        -0.575955         2.477247
 H        -3.955327         1.546718         1.257231
 H        -3.364855         3.295027         1.339491
 H        -0.412425         2.774214         0.504710
 H        -0.480025         2.505692         3.761900
 H        -1.181086         0.738160         3.850018
 H         1.231486         1.592348         2.293911
 H         0.850983         0.002819         2.693793
