19
Iteration:  3680charge 0 multiplicity 1
 O         0.528739        -0.176780         0.166798
 C        -0.291353         0.554391         1.034955
 C        -1.673133         0.003568         1.460754
 C        -1.819429         1.461003         1.936818
 C        -3.065551         2.098169         1.245395
 O        -2.294448         1.970809        -0.084420
 C        -1.082488         1.922914         0.719184
 C        -0.724140         1.601507         3.142967
 C         0.365814         0.878683         2.376495
 H         0.933788         0.260177        -0.641928
 H        -2.409719        -0.338823         0.682174
 H        -1.538417        -0.803018         2.231138
 H        -4.025927         1.413798         1.248388
 H        -3.243373         3.040733         1.762293
 H        -0.436728         2.987168         0.634610
 H        -0.575858         2.627749         3.461655
 H        -0.908090         0.941354         4.025002
 H         1.327236         1.328347         2.296051
 H         0.444879        -0.013251         2.894517
