19
Iteration:  2427
 O         0.500774        -0.128625         0.063398
 C        -0.277578         0.554357         1.030645
 C        -1.582824        -0.038462         1.584529
 C        -1.826600         1.413679         1.962443
 C        -2.989731         2.108774         1.257001
 O        -2.336957         1.874466        -0.014246
 C        -1.056405         1.843465         0.724527
 C        -0.853519         1.636906         3.071360
 C         0.458698         1.002029         2.378736
 H         0.072271        -0.029070        -0.838032
 H        -2.161025        -0.450744         0.706881
 H        -1.614918        -0.829176         2.419390
 H        -4.004545         1.636598         1.144733
 H        -3.288740         3.214102         1.437578
 H        -0.412053         2.812370         0.788318
 H        -0.846880         2.741505         3.261238
 H        -1.132974         1.177024         4.083515
 H         1.282655         1.782740         2.076399
 H         0.858413         0.147668         2.936957
