19
Iteration:  2814charge 0 multiplicity 1
 O         0.634368        -0.125261         0.240617
 C        -0.347531         0.477339         0.963031
 C        -1.613863        -0.124083         1.550127
 C        -1.771611         1.354236         1.939961
 C        -3.000942         2.056102         1.339218
 O        -2.349564         2.062182        -0.025223
 C        -1.071711         1.877869         0.601262
 C        -0.857976         1.672836         3.117964
 C         0.367317         0.973007         2.265184
 H         0.252770        -0.180887        -0.680885
 H        -2.324874        -0.386903         0.776242
 H        -1.712431        -0.814320         2.386601
 H        -3.891601         1.445211         1.500574
 H        -3.298088         3.164587         1.513440
 H        -0.419672         2.803590         0.532879
 H        -0.723793         2.774531         3.143546
 H        -1.089743         1.314752         4.172264
 H         1.202698         1.713564         2.080305
 H         0.842648         0.117511         2.723619
