19
Iteration:  1548charge 0 multiplicity 1
 O         0.555834        -0.190234         0.165972
 C        -0.299484         0.527259         1.072685
 C        -1.621217        -0.026656         1.651113
 C        -1.806174         1.507821         1.975619
 C        -3.076829         2.052391         1.167809
 O        -2.327037         1.868885        -0.102315
 C        -1.107695         1.945016         0.702226
 C        -0.775876         1.570998         3.149206
 C         0.410491         1.090453         2.282096
 H         0.259439        -0.061307        -0.797170
 H        -2.446808        -0.342004         0.937478
 H        -1.346875        -0.704877         2.524482
 H        -3.804658         1.318444         1.198140
 H        -3.421525         3.139558         1.471163
 H        -0.425546         2.781126         0.737427
 H        -0.379220         2.608842         3.532082
 H        -1.071275         0.806322         3.870108
 H         1.016321         1.752446         1.848262
 H         1.114345         0.224888         2.565885
