19
Iteration:  2181
 O         0.519602        -0.210570         0.092416
 C        -0.307347         0.593998         1.028995
 C        -1.543883        -0.141003         1.525677
 C        -1.818493         1.454731         1.980626
 C        -3.072314         2.027523         1.301668
 O        -2.346301         1.950539        -0.028892
 C        -1.004664         1.843766         0.677480
 C        -0.872462         1.692170         3.099438
 C         0.421538         1.102399         2.378700
 H        -0.075113        -0.316974        -0.735811
 H        -2.135958        -0.535056         0.705627
 H        -1.380919        -0.805467         2.353067
 H        -3.945536         1.486528         1.214078
 H        -3.202716         3.063409         1.587481
 H        -0.410736         2.641493         0.510813
 H        -0.709070         2.748830         3.336613
 H        -1.014136         1.178731         4.049725
 H         1.188790         1.880329         2.114931
 H         1.117202         0.324818         2.850812
