19
Iteration:   474
 O         0.603917        -0.055156         0.188054
 C        -0.281372         0.470723         0.991722
 C        -1.719022        -0.106705         1.660192
 C        -1.805041         1.488122         1.942909
 C        -3.086175         2.100076         1.307333
 O        -2.389486         1.914221        -0.050933
 C        -1.074584         1.809489         0.598557
 C        -0.787586         1.515431         3.101148
 C         0.428447         1.095508         2.222246
 H         1.518291         0.144480         0.447221
 H        -2.505445        -0.395755         0.945266
 H        -1.542868        -0.692314         2.561160
 H        -4.087120         1.586003         1.302238
 H        -3.245435         3.158902         1.349072
 H        -0.513253         2.754197         0.308273
 H        -0.614273         2.528138         3.446590
 H        -0.895078         0.896606         4.059770
 H         1.075877         1.932662         1.799013
 H         1.110040         0.257674         2.608066
