19
Iteration:   894charge 0 multiplicity 1
 O         0.557873        -0.234981         0.099266
 C        -0.224425         0.560863         0.973099
 C        -1.542056        -0.055085         1.632322
 C        -1.834063         1.375779         1.951889
 C        -3.056262         1.997409         1.367247
 O        -2.464987         1.920567        -0.004558
 C        -1.090558         1.849689         0.659354
 C        -0.844260         1.760306         2.980585
 C         0.439607         1.084078         2.265410
 H         1.379618        -0.250421         0.638233
 H        -2.069594        -0.363206         0.707681
 H        -1.365590        -0.888695         2.308072
 H        -4.027585         1.445891         1.569141
 H        -3.220607         3.086934         1.580475
 H        -0.845826         2.977215         0.650539
 H        -0.552800         2.847683         2.987911
 H        -1.041764         1.534280         4.113764
 H         1.191043         1.920868         2.118593
 H         0.717920         0.225801         2.756413
