19
Iteration:  3610charge 0 multiplicity 1
 O         0.539856        -0.123617         0.097767
 C        -0.354914         0.513590         0.980543
 C        -1.618822        -0.103171         1.496833
 C        -1.957219         1.403334         2.044006
 C        -3.070578         2.161215         1.241275
 O        -2.241496         2.027811        -0.018663
 C        -0.996475         1.863022         0.727766
 C        -0.785944         1.512644         3.137421
 C         0.369452         1.019459         2.242125
 H         1.004120        -0.888480         0.508982
 H        -2.259643        -0.479760         0.740321
 H        -1.507825        -0.761960         2.334908
 H        -4.016882         1.756782         1.103188
 H        -3.216105         3.293753         1.367854
 H        -0.386511         2.900038         0.747856
 H        -0.619024         2.542086         3.519485
 H        -0.971008         0.840831         3.999746
 H         0.908274         1.897191         1.989653
 H         1.095624         0.384152         2.889157
