19
Iteration:  4105charge 0 multiplicity 1
 O         0.445516        -0.258159         0.053839
 C        -0.287263         0.590735         0.952586
 C        -1.649447         0.079777         1.495934
 C        -1.812139         1.490692         1.959435
 C        -3.006707         2.123593         1.216055
 O        -2.226908         2.047655        -0.090254
 C        -1.002216         1.971499         0.761284
 C        -0.889971         1.393597         3.138481
 C         0.358915         0.877308         2.486239
 H         1.441810        -0.152371         0.192639
 H        -2.345714        -0.264259         0.710343
 H        -1.535953        -0.632574         2.302167
 H        -3.844868         1.511123         0.980081
 H        -3.278847         3.109124         1.538567
 H        -0.472520         2.874714         0.829008
 H        -0.698602         2.410727         3.620498
 H        -1.321777         0.701453         3.879599
 H         1.018648         1.886287         2.293126
 H         0.837267        -0.011050         3.019994
