19
Iteration:  1960charge 0 multiplicity 1
 O         0.585179        -0.161971         0.192986
 C        -0.281733         0.579349         0.992776
 C        -1.595924        -0.012658         1.612249
 C        -1.845581         1.473484         1.941353
 C        -3.105878         1.897499         1.271097
 O        -2.341982         1.985588        -0.026383
 C        -1.069794         1.886710         0.717619
 C        -0.823368         1.687874         3.057528
 C         0.450630         1.009304         2.268822
 H         0.120232        -0.507438        -0.633336
 H        -2.134831        -0.419480         0.782352
 H        -1.615256        -0.683759         2.435059
 H        -3.921036         1.263632         1.198533
 H        -3.510690         2.885860         1.604989
 H        -0.418734         2.795515         0.720635
 H        -0.452438         2.724939         3.239403
 H        -0.834906         1.083573         4.011623
 H         1.213677         1.794516         1.863550
 H         0.758378         0.021390         2.690988
