19
Iteration:   797
 O         0.538797        -0.247013        -0.025997
 C        -0.219579         0.589385         0.969625
 C        -1.537108        -0.031626         1.564983
 C        -1.833451         1.405295         1.983123
 C        -3.089668         1.998248         1.299004
 O        -2.361869         1.881588         0.037233
 C        -1.079776         1.906642         0.653372
 C        -0.851046         1.734841         3.049567
 C         0.428545         1.145182         2.435127
 H         0.432669        -1.113523         0.376503
 H        -2.174699        -0.509758         0.747685
 H        -1.452564        -0.790620         2.415857
 H        -4.076873         1.517842         1.168562
 H        -3.350395         3.064128         1.520316
 H        -0.500809         2.797427         0.764659
 H        -0.713602         2.817771         3.130524
 H        -0.941115         1.426807         4.148022
 H         1.272752         1.852926         2.122850
 H         0.693705         0.198618         2.872579
