19
Iteration:   561
 O         0.627347        -0.100071         0.030707
 C        -0.354630         0.435537         1.010390
 C        -1.713626        -0.031075         1.624454
 C        -1.828098         1.530108         2.061199
 C        -3.114078         1.916255         1.202033
 O        -2.256547         1.970846        -0.013032
 C        -1.094761         1.732931         0.720947
 C        -0.792935         1.770119         3.114416
 C         0.405039         1.045940         2.291709
 H         1.078991         0.535418        -0.480553
 H        -2.646999        -0.519713         1.186354
 H        -1.361867        -0.789283         2.348091
 H        -3.759733         0.976422         1.369250
 H        -3.488738         2.958724         1.374388
 H        -0.511608         2.556532         0.535338
 H        -0.456742         2.789546         3.307423
 H        -1.030646         1.272125         4.113764
 H         1.056551         1.831298         1.810086
 H         0.938430         0.049879         2.762932
