19
Iteration:    42charge 0 multiplicity 1
 O         0.578119        -0.258065         0.086558
 C        -0.223706         0.477129         1.012718
 C        -1.544327        -0.046940         1.620528
 C        -1.797791         1.445056         1.957555
 C        -3.050097         1.904008         1.307690
 O        -2.478016         1.844446        -0.037186
 C        -1.134671         1.847047         0.674840
 C        -0.826824         1.724139         3.103371
 C         0.437392         1.252666         2.270481
 H         1.440303         0.266338        -0.061603
 H        -2.284236        -0.354484         0.940166
 H        -1.444835        -0.773421         2.427706
 H        -3.966671         1.367176         1.384938
 H        -3.381609         2.976692         1.461295
 H        -0.732457         2.857480         0.613712
 H        -0.683090         2.867360         3.193212
 H        -1.071826         1.481612         4.094972
 H         0.762553         2.284603         1.942704
 H         1.269207         0.779432         2.755890
