19
Iteration:  1480charge 0 multiplicity 1
 O         0.700643        -0.106309         0.161926
 C        -0.236379         0.546883         0.960726
 C        -1.574088        -0.148608         1.567126
 C        -1.863125         1.394774         2.008081
 C        -3.110671         2.184508         1.300025
 O        -2.392783         1.962676        -0.009901
 C        -1.116277         1.770922         0.612412
 C        -0.818945         1.693815         3.054398
 C         0.391079         0.981999         2.323497
 H         0.227195        -0.844564        -0.176542
 H        -2.408285        -0.359927         0.824891
 H        -1.491693        -0.878575         2.409446
 H        -4.087484         1.718668         1.184958
 H        -2.959560         3.288445         1.544109
 H        -0.653658         2.739996         0.494542
 H        -0.673630         2.834326         3.021399
 H        -0.889323         1.362704         4.093875
 H         1.231622         1.628413         2.222983
 H         0.559151         0.108466         2.944743
