19
Iteration:    48
 O         0.584516        -0.276832         0.089187
 C        -0.210829         0.477535         0.982916
 C        -1.556040        -0.040855         1.585823
 C        -1.775188         1.418716         1.950231
 C        -3.062448         1.925276         1.343476
 O        -2.463675         1.822466         0.021388
 C        -1.111554         1.823522         0.657364
 C        -0.861236         1.787354         3.073096
 C         0.415031         1.300601         2.298548
 H         1.279209         0.326049        -0.192552
 H        -2.294326        -0.168043         0.716071
 H        -1.581638        -0.897240         2.306864
 H        -3.935905         1.192237         1.433304
 H        -3.353792         2.954728         1.522858
 H        -0.606874         2.844245         0.490183
 H        -0.730798         2.846902         3.167757
 H        -1.104660         1.366898         4.143545
 H         0.999852         2.182883         1.995067
 H         1.172104         0.689895         2.862450
