19
Iteration:  3093charge 0 multiplicity 1
 O         0.625958        -0.157432         0.123701
 C        -0.252434         0.500210         1.017869
 C        -1.667311        -0.016674         1.580805
 C        -1.889077         1.398602         1.951075
 C        -3.078375         2.004366         1.281142
 O        -2.300446         2.040933         0.023536
 C        -1.058217         1.804685         0.694414
 C        -0.779421         1.709408         3.051749
 C         0.379192         0.987011         2.281383
 H         0.289298        -0.331354        -0.740754
 H        -2.349453        -0.274136         0.778643
 H        -1.752859        -0.687722         2.398841
 H        -3.961846         1.290980         1.354799
 H        -3.416844         3.032338         1.434921
 H        -0.521220         2.809295         0.747793
 H        -0.720578         2.823607         3.318705
 H        -0.872662         1.182636         4.012590
 H         1.205713         1.667528         2.027480
 H         0.879980         0.091215         2.924018
