19
Iteration:   292
 O         0.525487        -0.068102         0.083645
 C        -0.274332         0.511836         1.047801
 C        -1.650243        -0.075430         1.668114
 C        -1.857896         1.465732         2.000019
 C        -3.159263         1.936819         1.203934
 O        -2.322359         1.936489        -0.022941
 C        -1.084899         1.820655         0.677629
 C        -0.747195         1.697872         3.085699
 C         0.476753         1.060900         2.234405
 H         1.458558        -0.125368         0.408837
 H        -2.386640        -0.590587         1.010002
 H        -1.684274        -0.697881         2.553125
 H        -3.990861         1.262725         1.295239
 H        -3.621702         2.901278         1.310285
 H        -0.478112         2.616441         0.375212
 H        -0.571572         2.775034         3.229827
 H        -0.833950         1.209432         4.029926
 H         1.246051         1.877878         2.045649
 H         1.005948         0.248633         2.667529
