19
Iteration:    89
 O         0.765557        -0.120071         0.150379
 C        -0.261798         0.591306         0.975447
 C        -1.507387        -0.024797         1.700567
 C        -1.839304         1.447929         1.960447
 C        -3.076517         1.951786         1.289353
 O        -2.538052         1.797410        -0.052275
 C        -1.204416         1.871443         0.659191
 C        -0.745764         1.778551         2.981945
 C         0.412264         1.016237         2.330827
 H         0.340045        -0.446603        -0.663899
 H        -2.257694        -0.361555         0.939525
 H        -1.506959        -0.691740         2.553557
 H        -4.015149         1.371263         1.379938
 H        -3.353186         2.977342         1.566319
 H        -0.865687         2.850286         0.716918
 H        -0.554484         2.848306         3.102113
 H        -0.983577         1.606297         4.016302
 H         1.224389         1.685317         2.118808
 H         0.845195         0.120347         2.838567
