19
Iteration:  4323charge 0 multiplicity 1
 O         0.545275        -0.161167         0.052119
 C        -0.319165         0.512576         0.963257
 C        -1.546904        -0.072422         1.435052
 C        -1.843439         1.516843         1.958042
 C        -2.986708         2.248993         1.240412
 O        -2.301527         2.061505        -0.032336
 C        -0.997084         1.880794         0.788844
 C        -0.964250         1.520997         3.149518
 C         0.338201         0.807681         2.366952
 H         1.095405        -0.769999         0.597418
 H        -2.241662        -0.302989         0.651076
 H        -1.567141        -0.783113         2.251971
 H        -4.077416         1.909222         1.146616
 H        -3.065033         3.329707         1.593413
 H        -0.263285         2.888583         0.620506
 H        -0.661137         2.418153         3.747095
 H        -1.352728         0.838759         3.897381
 H         1.146368         1.536543         2.477531
 H         0.750700        -0.059646         2.777131
