19
Iteration:  3258charge 0 multiplicity 1
 O         0.640129        -0.060713         0.080530
 C        -0.328889         0.526824         0.964229
 C        -1.648309         0.026726         1.627306
 C        -1.812725         1.580650         2.002291
 C        -3.099134         2.153752         1.218738
 O        -2.290212         1.804795        -0.031572
 C        -1.039976         1.833823         0.672395
 C        -0.839331         1.545675         3.160008
 C         0.390363         0.970751         2.321142
 H         0.102242        -0.605293        -0.514962
 H        -2.457533        -0.225664         0.978769
 H        -1.589713        -0.781819         2.355325
 H        -3.919552         1.499785         1.219469
 H        -3.387410         3.163046         1.440677
 H        -0.520512         2.765082         0.492611
 H        -0.503323         2.486114         3.828335
 H        -1.076193         0.784598         3.953407
 H         1.173322         1.724535         1.942482
 H         0.956389         0.020959         2.837902
