19
Iteration:  4337charge 0 multiplicity 1
 O         0.517837        -0.170316         0.034175
 C        -0.216110         0.470668         1.026651
 C        -1.649628        -0.153168         1.440092
 C        -1.862980         1.432380         1.926188
 C        -2.991458         2.271349         1.250379
 O        -2.292793         2.190915        -0.055109
 C        -0.987426         1.791620         0.703811
 C        -0.907786         1.483123         3.206995
 C         0.336071         0.991597         2.421954
 H         1.018437        -0.895987         0.389378
 H        -2.202542        -0.437498         0.550459
 H        -1.569845        -1.009342         2.116978
 H        -4.064644         1.711579         1.298605
 H        -3.013260         3.360098         1.537920
 H        -0.367885         2.802085         0.925088
 H        -0.827909         2.509497         3.580171
 H        -1.210383         0.787854         4.002236
 H         1.157005         1.694204         2.112637
 H         0.664949         0.097782         3.011296
