19
Iteration:  1677
 O         0.490019        -0.214676         0.143804
 C        -0.272215         0.596493         0.992355
 C        -1.536825        -0.135451         1.577112
 C        -1.807639         1.434084         1.951483
 C        -3.016349         2.160469         1.233284
 O        -2.330477         1.860087        -0.069059
 C        -1.084114         1.825345         0.697699
 C        -0.832287         1.641496         3.158364
 C         0.415756         1.127528         2.320951
 H         0.058866        -0.275379        -0.740596
 H        -2.097641        -0.595467         0.732476
 H        -1.356060        -0.907091         2.408412
 H        -4.097150         1.685703         1.362738
 H        -3.276584         3.177316         1.539104
 H        -0.530492         2.785011         0.898961
 H        -0.925047         2.722033         3.386201
 H        -1.027676         1.165950         4.152835
 H         0.993032         2.075496         1.860643
 H         1.146921         0.423860         2.939345
