19
Iteration:  1760
 O         0.716055        -0.212201         0.238842
 C        -0.271328         0.581149         0.989273
 C        -1.593972        -0.104590         1.454462
 C        -1.799303         1.539149         1.930729
 C        -3.083866         2.091854         1.362639
 O        -2.459230         1.883281         0.061801
 C        -1.091840         1.836040         0.673523
 C        -0.853137         1.692445         2.978617
 C         0.401539         1.001749         2.315678
 H         0.305629        -0.123590        -0.669263
 H        -2.228371        -0.440209         0.623861
 H        -1.477874        -0.814740         2.243262
 H        -3.983892         1.548950         1.384707
 H        -3.043439         3.232713         1.667061
 H        -0.571319         2.770228         0.422920
 H        -0.708072         2.803769         2.992936
 H        -1.120941         1.337108         4.008589
 H         1.319746         1.565008         2.163911
 H         0.738017         0.115740         2.813319
