19
Iteration:  4262charge 0 multiplicity 1
 O         0.545670        -0.054986        -0.014700
 C        -0.282465         0.500209         0.955600
 C        -1.686168        -0.110329         1.517828
 C        -1.888480         1.351618         1.935081
 C        -3.003552         2.231637         1.221668
 O        -2.201080         2.132434        -0.027165
 C        -0.957914         1.838696         0.813558
 C        -0.900183         1.579192         3.090541
 C         0.295832         0.848633         2.464935
 H         0.865087        -0.958773         0.283555
 H        -2.363584        -0.515666         0.770688
 H        -1.689126        -0.788286         2.418748
 H        -3.968918         1.816651         1.110098
 H        -3.029806         3.189327         1.657390
 H        -0.391036         2.658010         0.812259
 H        -0.594351         2.635139         3.228902
 H        -1.124284         1.114613         4.080995
 H         1.295460         1.380583         2.425506
 H         0.398203        -0.242797         2.793102
