19
Iteration:  1499charge 0 multiplicity 1
 O         0.651135        -0.133468         0.160413
 C        -0.243995         0.482205         0.995335
 C        -1.575475        -0.146325         1.480256
 C        -1.772532         1.438790         1.927669
 C        -2.993770         2.099300         1.353144
 O        -2.500466         1.963922        -0.007559
 C        -1.064475         1.829445         0.690484
 C        -0.836886         1.830693         3.003123
 C         0.318882         0.943938         2.406318
 H         0.412313        -0.812850        -0.418555
 H        -1.996259        -0.551144         0.609290
 H        -1.396888        -0.808517         2.285896
 H        -4.106546         1.655424         1.529939
 H        -2.959694         3.197252         1.516343
 H        -0.452697         2.728616         0.686262
 H        -0.737974         2.838625         2.941445
 H        -1.235720         1.416601         3.913033
 H         1.287693         1.631290         2.255460
 H         0.626825         0.073480         2.873889
