19
Iteration:  1312charge 0 multiplicity 1
 O         0.526074        -0.146239         0.045246
 C        -0.277463         0.531542         1.034870
 C        -1.484242        -0.039371         1.593037
 C        -1.887299         1.500917         1.973241
 C        -3.058890         2.055702         1.224107
 O        -2.357963         1.811641         0.012922
 C        -1.006364         1.818084         0.719182
 C        -0.849549         1.657792         3.102610
 C         0.431634         1.141962         2.330938
 H        -0.107512        -0.768481        -0.281477
 H        -2.105004        -0.375168         0.760780
 H        -1.422797        -0.678014         2.435120
 H        -4.142770         1.554551         1.313580
 H        -3.286190         3.184068         1.349139
 H        -0.461381         2.734744         0.664140
 H        -0.784437         2.696084         3.309265
 H        -1.070429         1.008239         3.986986
 H         1.112581         1.952915         1.844372
 H         1.002210         0.432613         2.864407
