19
Iteration:  2185
 O         0.533381        -0.220544         0.091217
 C        -0.318752         0.560111         1.028945
 C        -1.512525        -0.133656         1.525189
 C        -1.831755         1.444274         1.951043
 C        -3.033777         2.001835         1.294864
 O        -2.348352         1.997349        -0.021483
 C        -1.021015         1.818159         0.692930
 C        -0.848777         1.708201         3.097204
 C         0.391385         1.098781         2.377404
 H        -0.114891        -0.277489        -0.585573
 H        -2.282667        -0.400890         0.723963
 H        -1.379323        -0.916991         2.379968
 H        -4.053176         1.446987         1.218103
 H        -3.340779         3.005373         1.674916
 H        -0.346250         2.776301         0.518173
 H        -0.859730         2.820570         3.235874
 H        -0.909022         1.205090         4.113296
 H         1.260425         1.918898         2.041814
 H         1.004059         0.408252         2.866176
