19
Iteration:  3312
 O         0.662280        -0.190295         0.110093
 C        -0.297279         0.508517         0.922370
 C        -1.630324        -0.134582         1.491506
 C        -1.846313         1.409234         1.972436
 C        -3.050117         2.044552         1.273334
 O        -2.351750         2.004983         0.035039
 C        -0.998249         1.832337         0.749793
 C        -0.861357         1.769373         3.085301
 C         0.311331         1.037323         2.365232
 H         0.238227        -0.267158        -0.723338
 H        -2.214510        -0.395486         0.639580
 H        -1.628497        -0.923022         2.220265
 H        -3.931410         1.530528         1.455180
 H        -3.172276         3.078016         1.793341
 H        -0.396088         2.784761         0.771695
 H        -0.613156         2.906693         2.956764
 H        -0.817604         1.434086         4.129901
 H         1.224569         1.463933         2.046179
 H         0.645815         0.141249         2.982609
