19
Iteration:  4442
 O         0.574149        -0.016350         0.008094
 C        -0.351504         0.448944         0.923982
 C        -1.751079        -0.027293         1.450920
 C        -1.895597         1.386775         2.068931
 C        -2.916074         2.230539         1.213651
 O        -2.230250         1.990483        -0.032067
 C        -0.917383         1.824942         0.765794
 C        -0.923888         1.556598         3.241626
 C         0.323030         0.888594         2.353925
 H         1.001237        -0.866715         0.244187
 H        -2.437943        -0.215784         0.620031
 H        -1.857044        -0.821830         2.282026
 H        -3.869927         1.744637         1.064797
 H        -2.922191         3.316278         1.585083
 H        -0.326694         2.706724         0.724702
 H        -0.801442         2.701058         3.302803
 H        -1.200399         1.021332         4.187205
 H         1.203010         1.595639         2.175391
 H         0.733966        -0.080058         2.877224
