19
Iteration:  1775
 O         0.698137        -0.157645         0.198117
 C        -0.278304         0.433017         0.958234
 C        -1.599087        -0.069647         1.526536
 C        -1.828129         1.358299         1.956399
 C        -3.009981         2.112622         1.344472
 O        -2.456710         1.944324        -0.037966
 C        -1.088706         1.834474         0.590343
 C        -0.815503         1.731135         3.130819
 C         0.356293         1.065832         2.323481
 H         0.439448        -0.474758        -0.723940
 H        -2.325199        -0.268426         0.755459
 H        -1.565755        -0.838845         2.327262
 H        -4.052750         1.670500         1.564580
 H        -3.144607         3.119718         1.562120
 H        -0.523514         2.825561         0.570849
 H        -0.648594         2.776642         3.404301
 H        -1.069625         1.115269         4.025959
 H         1.050275         1.895107         2.013156
 H         0.974748         0.389593         2.887776
