19
Iteration:  3313
 O         0.667196        -0.195031         0.108297
 C        -0.297907         0.502232         0.930383
 C        -1.634018        -0.136896         1.494614
 C        -1.848537         1.400766         1.976259
 C        -3.055232         2.051811         1.271867
 O        -2.357599         2.013747         0.031141
 C        -0.991060         1.837564         0.744661
 C        -0.858131         1.768744         3.089665
 C         0.307799         1.043171         2.364620
 H         0.274795        -0.258420        -0.742081
 H        -2.248582        -0.382083         0.641410
 H        -1.623353        -0.917853         2.228776
 H        -3.935956         1.494893         1.420042
 H        -3.182427         3.022523         1.795557
 H        -0.401287         2.747945         0.770239
 H        -0.597933         2.922553         2.977745
 H        -0.797026         1.440558         4.133483
 H         1.249658         1.494632         2.010284
 H         0.668946         0.117289         2.982954
