19
Iteration:  3939
 O         0.666555        -0.198796         0.166871
 C        -0.323337         0.408615         0.942703
 C        -1.703343        -0.110947         1.430513
 C        -1.852364         1.396526         1.932526
 C        -3.044117         2.170573         1.298393
 O        -2.256018         2.199510         0.042443
 C        -0.939903         1.873114         0.734615
 C        -0.955321         1.568862         3.123327
 C         0.353039         0.924961         2.360072
 H         0.413602        -0.172989        -0.781487
 H        -2.300381        -0.398049         0.579194
 H        -1.668830        -0.924232         2.128380
 H        -3.943353         1.514527         1.148301
 H        -3.157482         3.311799         1.451289
 H        -0.165153         2.735845         0.789404
 H        -0.801720         2.610851         3.367027
 H        -1.382747         1.079402         4.066117
 H         0.991115         1.673884         2.081619
 H         0.871222         0.170558         2.874261
