19
Iteration:   442charge 0 multiplicity 1
 O         0.557656        -0.139208         0.010582
 C        -0.239205         0.574479         0.981431
 C        -1.556383        -0.117322         1.543247
 C        -1.763537         1.481810         1.995326
 C        -3.123291         2.016822         1.345993
 O        -2.348101         1.903406        -0.015713
 C        -1.105043         1.856864         0.691632
 C        -0.851815         1.788098         3.067658
 C         0.382176         0.974368         2.344535
 H         1.300523        -0.700753         0.397633
 H        -2.397379        -0.408327         0.873387
 H        -1.420083        -0.890243         2.298964
 H        -4.004203         1.347028         1.246216
 H        -3.272841         3.060740         1.445703
 H        -0.482708         2.884332         0.729271
 H        -0.858855         2.886502         3.078306
 H        -1.075428         1.399577         4.124950
 H         1.292631         1.622075         2.246845
 H         0.483395         0.062810         2.907079
