19
Iteration:   729
 O         0.601305        -0.131260         0.037704
 C        -0.271264         0.564895         1.012064
 C        -1.615199        -0.015162         1.619505
 C        -1.849597         1.518306         1.973335
 C        -3.070050         2.115669         1.225718
 O        -2.358244         1.736807         0.012034
 C        -1.120427         1.895934         0.709254
 C        -0.791405         1.642588         3.141727
 C         0.407267         0.994528         2.226542
 H         1.455061        -0.206368         0.458592
 H        -2.382416        -0.259980         0.892612
 H        -1.578805        -0.639823         2.509662
 H        -4.044760         1.609293         1.320270
 H        -3.262683         3.201444         1.376627
 H        -0.691878         2.783466         0.404438
 H        -0.696126         2.632462         3.671006
 H        -1.100561         0.943929         3.957283
 H         1.133893         1.838301         1.938853
 H         0.839889         0.191549         2.683011
