19
Iteration:  4923
 O         0.652583        -0.228938         0.293240
 C        -0.376434         0.505974         0.932989
 C        -1.805333         0.035378         1.324717
 C        -1.758199         1.545189         1.914655
 C        -2.940753         2.174411         1.369331
 O        -2.298694         2.010204         0.003663
 C        -0.984617         1.930906         0.633023
 C        -0.877796         1.439784         3.119953
 C         0.325558         0.874224         2.380307
 H         0.733978         0.180693        -0.579266
 H        -2.532510        -0.213747         0.581344
 H        -1.479900        -0.598327         2.138515
 H        -3.831025         1.623403         1.512288
 H        -3.056530         3.171815         1.784502
 H        -0.361589         2.710430         0.349358
 H        -0.751779         2.526613         3.404281
 H        -1.394151         0.773111         3.800132
 H         1.068742         1.642729         2.168542
 H         0.790974         0.001318         2.907791
