19
Iteration:  3278
 O         0.578275        -0.033454         0.085045
 C        -0.271391         0.599789         0.993796
 C        -1.612610        -0.010689         1.574765
 C        -1.843997         1.524978         1.948667
 C        -3.026738         2.088577         1.211349
 O        -2.428163         1.838242        -0.074854
 C        -1.032922         1.855283         0.685009
 C        -0.747825         1.552474         3.197143
 C         0.417488         0.903346         2.401670
 H         0.027618        -0.660591        -0.346595
 H        -2.145185        -0.438009         0.759739
 H        -1.608275        -0.725340         2.396612
 H        -3.998307         1.757202         1.347654
 H        -2.998721         3.260466         1.169868
 H        -0.602204         2.871248         0.365001
 H        -0.610360         2.677851         3.452359
 H        -1.104189         1.113856         4.159992
 H         1.248405         1.550750         2.362922
 H         0.642224        -0.056799         2.930246
