19
Iteration:   227
 O         0.704050        -0.136069         0.086942
 C        -0.210887         0.589570         0.994007
 C        -1.544161        -0.101846         1.606052
 C        -1.853381         1.406084         1.982095
 C        -3.055070         2.052225         1.305458
 O        -2.478121         1.846493        -0.054134
 C        -1.196100         1.827014         0.682036
 C        -0.821851         1.737741         3.070123
 C         0.461226         1.095232         2.332935
 H         0.249565        -0.879086        -0.416329
 H        -2.290125        -0.464002         0.892816
 H        -1.543016        -0.836615         2.388022
 H        -4.052454         1.702183         1.396016
 H        -3.036967         3.133930         1.480794
 H        -0.800530         2.873707         0.565192
 H        -0.711956         2.833018         3.245806
 H        -1.039644         1.420217         4.042695
 H         1.371993         1.746048         2.207295
 H         0.718854         0.219672         2.909475
