19
Iteration:  1504
 O         0.655460        -0.136185         0.172025
 C        -0.226868         0.494686         0.985070
 C        -1.595611        -0.128732         1.489579
 C        -1.734652         1.443703         1.933172
 C        -3.001312         2.063339         1.372998
 O        -2.491088         1.958998        -0.014736
 C        -1.040893         1.839418         0.656940
 C        -0.855974         1.788850         3.011342
 C         0.326248         0.960089         2.377029
 H         0.228036        -0.781967        -0.486406
 H        -2.214787        -0.471093         0.560835
 H        -1.575248        -0.861062         2.375394
 H        -3.885595         1.574492         1.496313
 H        -2.876710         3.182511         1.507775
 H        -0.637994         2.891611         0.678764
 H        -0.766334         2.981573         2.946671
 H        -1.174569         1.515790         4.053339
 H         1.090906         1.618399         2.294357
 H         0.568838         0.038736         3.055420
