19
Iteration:  3252charge 0 multiplicity 1
 O         0.630958        -0.082397         0.110710
 C        -0.341273         0.550373         0.949579
 C        -1.675048         0.013921         1.659007
 C        -1.851660         1.549107         1.959514
 C        -3.052317         2.087447         1.277500
 O        -2.270916         1.847397        -0.008691
 C        -0.978317         1.843176         0.683019
 C        -0.827820         1.531342         3.144849
 C         0.383014         0.978886         2.270312
 H         0.039655        -0.478475        -0.518143
 H        -2.389903        -0.235359         0.808724
 H        -1.650452        -0.865180         2.342629
 H        -4.064651         1.469747         1.249623
 H        -3.280082         3.226495         1.327476
 H        -0.477090         2.833907         0.420740
 H        -0.705820         2.468545         3.559025
 H        -1.086759         0.932829         4.010658
 H         0.964047         1.826325         1.895536
 H         0.855979         0.320852         2.861591
