19
Iteration:  2409
 O         0.609517        -0.048866         0.110653
 C        -0.297264         0.466515         1.036088
 C        -1.703534        -0.121129         1.565522
 C        -1.822569         1.497485         1.977342
 C        -3.001241         2.152638         1.306165
 O        -2.313778         1.876143        -0.032157
 C        -1.026184         1.737536         0.684559
 C        -0.830615         1.577218         3.117840
 C         0.354980         1.107008         2.259028
 H         0.068355        -0.048831        -0.724819
 H        -2.452377        -0.430525         0.896499
 H        -1.665219        -0.755613         2.402208
 H        -4.074412         1.799288         1.442527
 H        -2.735766         3.136234         1.484930
 H        -0.436487         2.587117         0.433806
 H        -0.656992         2.512867         3.624709
 H        -1.019791         0.959991         3.948112
 H         0.887643         1.999561         1.950580
 H         1.108187         0.383324         2.839732
