19
Iteration:   117charge 0 multiplicity 1
 O         0.612708         0.081382         0.063782
 C        -0.357783         0.506547         1.013590
 C        -1.607674        -0.109335         1.714463
 C        -1.815585         1.507579         1.985486
 C        -3.120061         2.022286         1.232606
 O        -2.377730         1.742937         0.027127
 C        -1.041370         1.694477         0.614045
 C        -0.751385         1.738824         3.092638
 C         0.402158         1.123113         2.265789
 H         0.701326        -0.852325         0.016277
 H        -2.333245        -0.363807         0.986377
 H        -1.538406        -0.783436         2.597493
 H        -3.925187         1.289297         1.269040
 H        -3.511748         3.082835         1.311898
 H        -0.390184         2.594238         0.224299
 H        -0.638655         2.842394         3.368243
 H        -0.960541         1.313859         4.097416
 H         1.132410         1.885880         1.834007
 H         1.038006         0.392337         2.728986
