19
Iteration:  3598charge 0 multiplicity 1
 O         0.542100        -0.096552         0.025229
 C        -0.309470         0.507656         0.993723
 C        -1.692032        -0.045928         1.522640
 C        -1.821174         1.489626         1.974321
 C        -3.042751         2.108472         1.233775
 O        -2.223424         1.972541         0.012712
 C        -1.029613         1.851217         0.769560
 C        -0.876473         1.537473         3.111609
 C         0.379233         1.057393         2.328685
 H         0.657041        -1.036814         0.366687
 H        -2.410957        -0.374207         0.797665
 H        -1.545947        -0.827476         2.251329
 H        -3.806056         1.443596         1.320786
 H        -3.352324         3.166985         1.485804
 H        -0.260641         2.741883         0.640969
 H        -0.805429         2.541271         3.625014
 H        -1.127435         0.811446         3.875182
 H         1.172383         1.767596         2.025918
 H         0.923127         0.079670         2.698437
