19
Iteration:   582
 O         0.511669        -0.104817         0.082960
 C        -0.320760         0.520993         1.046126
 C        -1.585505        -0.081143         1.663200
 C        -1.837677         1.397544         1.961911
 C        -3.064189         2.064801         1.259089
 O        -2.350639         1.843385        -0.030506
 C        -1.034211         1.845387         0.668605
 C        -0.811447         1.677916         3.068382
 C         0.443895         1.080321         2.346110
 H         0.859834         0.621805        -0.524190
 H        -2.067702        -0.507579         0.733863
 H        -1.741965        -0.849827         2.446561
 H        -4.018463         1.466078         1.087785
 H        -3.120945         3.183398         1.507884
 H        -0.509869         2.790356         0.563905
 H        -0.729839         2.746014         3.229711
 H        -0.982632         1.157893         4.043870
 H         1.162156         1.825824         2.060652
 H         0.922216         0.062382         2.764702
