19
Iteration:  4345
 O         0.538471        -0.164770         0.028548
 C        -0.305100         0.460673         1.049429
 C        -1.693677        -0.115341         1.447878
 C        -1.862277         1.315178         1.928188
 C        -2.953093         2.233566         1.262319
 O        -2.230500         2.212084        -0.025184
 C        -1.021497         1.810449         0.693467
 C        -0.930080         1.471644         3.133640
 C         0.366460         1.026473         2.460346
 H         0.979344        -0.977162         0.324733
 H        -2.222150        -0.364586         0.548753
 H        -1.742210        -0.913916         2.194491
 H        -4.011957         1.811963         1.215681
 H        -3.113287         3.257411         1.685208
 H        -0.338657         2.841845         0.521994
 H        -0.849132         2.542458         3.479013
 H        -1.095868         0.938774         4.055815
 H         1.138596         1.784450         2.219161
 H         0.952240         0.286982         2.903790
