19
Iteration:  4496
 O         0.589101        -0.295085         0.026739
 C        -0.307701         0.517972         0.899540
 C        -1.652924         0.064487         1.452274
 C        -1.820818         1.439677         1.995822
 C        -3.005187         2.056107         1.297941
 O        -2.203040         2.172143         0.041181
 C        -0.948655         1.943889         0.662692
 C        -0.940971         1.531423         3.148874
 C         0.234004         0.917678         2.377789
 H         1.009281        -1.028215         0.483404
 H        -2.415241        -0.067039         0.681089
 H        -1.704037        -0.772630         2.270249
 H        -3.899690         1.472384         1.067361
 H        -3.310184         3.055646         1.810841
 H        -0.386672         2.815120         0.716159
 H        -0.719085         2.562709         3.652469
 H        -1.363975         0.918895         4.031142
 H         0.961227         1.790456         2.308254
 H         0.797985        -0.037155         2.775208
