19
Iteration:   446
 O         0.581178        -0.117221         0.038499
 C        -0.248805         0.516710         0.942068
 C        -1.560842        -0.111141         1.593253
 C        -1.809007         1.479206         1.993733
 C        -3.126411         2.022170         1.320350
 O        -2.360642         1.930711        -0.044209
 C        -1.134645         1.845186         0.691050
 C        -0.840493         1.758348         3.098510
 C         0.425696         0.980503         2.331778
 H         1.314244        -0.505599         0.488143
 H        -2.383489        -0.311534         0.863634
 H        -1.421248        -0.878502         2.362045
 H        -3.997146         1.377521         1.269110
 H        -3.291960         3.145182         1.401930
 H        -0.573572         2.812461         0.645166
 H        -0.647629         2.878130         3.226315
 H        -1.020914         1.362897         4.068508
 H         1.343637         1.568105         2.183139
 H         0.514583         0.035218         2.838582
