19
Iteration:   457charge 0 multiplicity 1
 O         0.629713        -0.081107         0.075538
 C        -0.339183         0.504655         0.984895
 C        -1.589485        -0.029707         1.645982
 C        -1.889800         1.432688         1.982871
 C        -3.082557         2.045355         1.212302
 O        -2.428580         1.962467        -0.054047
 C        -1.112201         1.787780         0.669289
 C        -0.735931         1.685581         3.113055
 C         0.418781         0.973633         2.294869
 H         1.441404        -0.191863         0.641391
 H        -2.257258        -0.495038         0.874959
 H        -1.542077        -0.744574         2.480221
 H        -4.012629         1.494394         1.318489
 H        -3.385393         3.090705         1.589566
 H        -0.518224         2.714199         0.487065
 H        -0.396486         2.729677         3.386722
 H        -0.986334         1.133490         3.982228
 H         1.318212         1.597015         2.136118
 H         0.910691         0.162884         2.822142
