19
Iteration:  4884
 O         0.513179        -0.181998         0.093161
 C        -0.315299         0.518160         1.028680
 C        -1.624048        -0.132235         1.476691
 C        -1.890805         1.400194         1.956590
 C        -3.015687         2.164106         1.195136
 O        -2.199466         2.157402        -0.036592
 C        -1.003732         1.903601         0.754483
 C        -0.893394         1.576247         3.124421
 C         0.393743         0.870407         2.419439
 H        -0.059157        -0.418852        -0.664656
 H        -2.263761        -0.656935         0.750854
 H        -1.553582        -0.813883         2.370585
 H        -4.002328         1.740080         0.843174
 H        -3.130451         3.243264         1.503227
 H        -0.393000         2.909591         0.962062
 H        -0.504607         2.545152         3.402665
 H        -1.119476         1.042512         4.092633
 H         1.255581         1.598257         2.360961
 H         0.780232        -0.005383         2.918837
