19
Iteration:  3890
 O         0.555730        -0.135302         0.067214
 C        -0.297176         0.585577         0.978739
 C        -1.659991        -0.012798         1.399639
 C        -1.826605         1.501717         1.903857
 C        -3.026936         2.202592         1.268983
 O        -2.336770         1.974043         0.019366
 C        -0.956637         1.895981         0.699722
 C        -0.866489         1.503158         3.129787
 C         0.335926         0.821255         2.428234
 H         1.401170        -0.303345         0.544544
 H        -2.474316        -0.381532         0.742755
 H        -1.543886        -0.718317         2.282866
 H        -3.997660         1.656336         1.150053
 H        -3.093757         3.234074         1.469120
 H        -0.326089         2.689480         0.660324
 H        -0.543681         2.514691         3.513474
 H        -1.303588         1.023332         3.984278
 H         1.340678         1.464249         2.483344
 H         0.443174        -0.173341         2.978654
