19
Iteration:  3145
 O         0.575012        -0.125123         0.031479
 C        -0.256480         0.580916         0.997307
 C        -1.636376        -0.034934         1.578555
 C        -1.865385         1.503558         1.962656
 C        -3.011537         2.144851         1.247302
 O        -2.332278         1.785206        -0.048648
 C        -1.059982         1.883242         0.786197
 C        -0.853881         1.571869         3.111843
 C         0.451023         1.043023         2.334509
 H         0.026773        -0.719002        -0.414916
 H        -2.491727        -0.216953         0.862274
 H        -1.720428        -0.692547         2.456805
 H        -3.978461         1.804551         1.274474
 H        -3.004155         3.248900         1.441559
 H        -0.568366         2.891438         0.639500
 H        -0.699894         2.615184         3.557857
 H        -1.135699         0.824330         3.954690
 H         1.332018         1.659781         2.325284
 H         0.986613         0.101688         2.863424
