19
Iteration:  1603charge 0 multiplicity 1
 O         0.626105        -0.144366         0.130570
 C        -0.249659         0.541118         0.963638
 C        -1.600809        -0.033602         1.534145
 C        -1.829430         1.369043         1.969978
 C        -3.046165         2.075562         1.299417
 O        -2.385626         1.881393        -0.035109
 C        -1.105460         1.843726         0.693161
 C        -0.835705         1.751490         3.045129
 C         0.414088         1.025897         2.379032
 H         0.158103        -0.667676        -0.505837
 H        -2.433165        -0.419811         0.927286
 H        -1.554966        -0.816148         2.362154
 H        -4.003049         1.637935         1.406136
 H        -3.007952         3.271359         1.551437
 H        -0.574729         2.787051         0.656220
 H        -0.504875         2.825257         3.120145
 H        -0.894419         1.614517         4.105406
 H         1.311603         1.498542         2.272302
 H         0.530473        -0.013527         2.873070
