19
Iteration:   152charge 0 multiplicity 1
 O         0.430181        -0.230182        -0.002431
 C        -0.221063         0.601463         0.985060
 C        -1.413159        -0.059418         1.606753
 C        -1.877988         1.398210         1.988574
 C        -3.121603         2.074863         1.267298
 O        -2.377939         1.736220         0.047774
 C        -1.102578         1.852987         0.666883
 C        -0.868494         1.706679         3.076080
 C         0.501936         1.258373         2.344657
 H         1.280835        -0.450232         0.346390
 H        -1.939493        -0.587644         0.799045
 H        -1.325842        -0.791287         2.360255
 H        -4.090349         1.610813         1.203205
 H        -3.327747         3.206873         1.397640
 H        -0.563987         2.892596         0.486891
 H        -0.979991         2.861529         3.282773
 H        -0.989551         1.146776         3.987744
 H         1.252633         2.068375         2.335343
 H         0.908763         0.329015         2.759199
