19
Iteration:  2460
 O         0.566748        -0.175026         0.107172
 C        -0.318716         0.592607         0.974067
 C        -1.584943        -0.014129         1.532655
 C        -1.761435         1.529924         1.997373
 C        -3.087962         1.897260         1.253512
 O        -2.344195         2.000099         0.009103
 C        -1.044944         1.928131         0.698907
 C        -0.756248         1.721671         3.068352
 C         0.339944         0.867306         2.387805
 H         0.049187        -0.407819        -0.637434
 H        -2.290233        -0.287757         0.712483
 H        -1.533060        -0.778788         2.388657
 H        -3.704204         0.988187         1.123562
 H        -3.583370         2.865347         1.459536
 H        -0.336346         2.906464         0.699144
 H        -0.610839         2.826444         3.088711
 H        -1.006293         1.417148         4.133659
 H         1.323232         1.432136         2.229577
 H         0.540697        -0.040120         2.904352
