19
Iteration:   210
 O         0.746354        -0.097316         0.215379
 C        -0.301114         0.436876         0.987739
 C        -1.585983        -0.084467         1.554606
 C        -1.838860         1.474356         1.984674
 C        -3.170991         2.037623         1.358735
 O        -2.451681         1.878068         0.011554
 C        -1.049928         1.774845         0.630758
 C        -0.781491         1.816404         3.030309
 C         0.363816         1.032782         2.251766
 H         0.413382        -0.105566        -0.742775
 H        -2.300183        -0.368769         0.733682
 H        -1.381801        -0.798586         2.380345
 H        -3.969289         1.249006         1.437210
 H        -3.454199         3.111148         1.555888
 H        -0.394401         2.668560         0.497918
 H        -0.551110         2.903959         3.186193
 H        -0.910904         1.335180         4.062288
 H         1.013083         1.795432         1.873558
 H         1.029741         0.243728         2.720864
