19
Iteration:  1695
 O         0.511032        -0.131694         0.043623
 C        -0.289770         0.504088         1.065601
 C        -1.569070        -0.065022         1.639470
 C        -1.880518         1.401182         2.032697
 C        -3.017248         2.028908         1.197385
 O        -2.276447         1.895585        -0.056922
 C        -1.071813         1.842102         0.730033
 C        -0.826362         1.665838         3.107813
 C         0.434752         1.147208         2.283562
 H        -0.182506        -0.500082        -0.551187
 H        -2.361048        -0.472446         1.016252
 H        -1.449407        -0.741344         2.438667
 H        -4.033334         1.573555         1.059792
 H        -2.948058         3.095542         1.486638
 H        -0.375780         2.726435         0.564494
 H        -0.776074         2.728974         3.443189
 H        -1.185749         1.123758         4.040850
 H         1.133865         1.970224         2.170620
 H         0.904103         0.369510         2.775107
