19
Iteration:  1345
 O         0.666139        -0.132654         0.135167
 C        -0.337417         0.563571         0.960059
 C        -1.547552         0.033238         1.534554
 C        -1.807549         1.446922         1.989876
 C        -3.075669         2.079156         1.271984
 O        -2.491466         1.844235         0.001973
 C        -1.046940         1.846331         0.552075
 C        -0.811674         1.637606         3.106222
 C         0.406527         1.025243         2.359089
 H         0.780632        -1.033415         0.583522
 H        -2.270963        -0.356021         0.850069
 H        -1.489903        -0.647851         2.345667
 H        -3.994391         1.520862         1.640589
 H        -2.927318         3.160571         1.552728
 H        -0.560732         2.763389         0.325097
 H        -0.691571         2.659776         3.305500
 H        -1.132000         1.285368         4.114166
 H         1.094339         1.854828         1.923651
 H         0.871822         0.212834         2.784154
