19
Iteration:   275charge 0 multiplicity 1
 O         0.529549        -0.098962        -0.070203
 C        -0.331671         0.521060         0.990093
 C        -1.659988         0.049651         1.671636
 C        -1.829489         1.505319         2.021767
 C        -3.080708         1.937309         1.213933
 O        -2.349009         1.812688        -0.018395
 C        -1.011244         1.749289         0.683002
 C        -0.769224         1.674896         3.138725
 C         0.443980         1.171832         2.344011
 H         1.269819        -0.560685         0.358151
 H        -2.339700        -0.243601         0.855641
 H        -1.640607        -0.764421         2.436422
 H        -3.932089         1.201862         1.072950
 H        -3.426534         2.985779         1.497434
 H        -0.439504         2.788095         0.606583
 H        -0.727925         2.692388         3.596073
 H        -1.029545         1.051892         4.052073
 H         1.041450         1.979343         1.980368
 H         1.026758         0.526287         3.105283
