19
Iteration:   735charge 0 multiplicity 1
 O         0.637095        -0.125837         0.063834
 C        -0.321691         0.569439         1.006208
 C        -1.641217        -0.008834         1.631996
 C        -1.846668         1.498169         1.974282
 C        -3.099186         2.130356         1.245265
 O        -2.366258         1.774815         0.000547
 C        -1.105308         1.817785         0.749030
 C        -0.809008         1.636042         3.102904
 C         0.444335         1.032539         2.191259
 H         1.465623        -0.181534         0.546223
 H        -2.432461        -0.232645         0.918190
 H        -1.389210        -0.526661         2.587826
 H        -4.078462         1.600568         1.190957
 H        -3.344683         3.215748         1.245501
 H        -0.713363         2.952067         0.544896
 H        -0.695042         2.585987         3.598498
 H        -0.950575         0.858888         3.840780
 H         1.282850         1.578818         1.829993
 H         0.897128         0.045318         2.762870
