19
Iteration:   494charge 0 multiplicity 1
 O         0.607387        -0.260204         0.070197
 C        -0.294417         0.548201         0.969417
 C        -1.589471        -0.020636         1.493204
 C        -1.836498         1.472881         1.996845
 C        -2.979514         2.105729         1.331964
 O        -2.413525         1.830287         0.017127
 C        -1.082029         1.800917         0.675868
 C        -0.857592         1.639388         3.118801
 C         0.345849         1.182705         2.286111
 H         1.530996         0.120515         0.272413
 H        -2.176204        -0.249903         0.610134
 H        -1.455372        -0.770797         2.315294
 H        -4.010731         1.638215         1.349171
 H        -2.971833         3.212854         1.558562
 H        -0.582327         2.717358         0.577657
 H        -0.890998         2.570686         3.661473
 H        -1.092872         0.874771         3.934935
 H         0.882519         2.060101         1.938279
 H         1.016782         0.335326         2.826013
