19
Iteration:   628charge 0 multiplicity 1
 O         0.615637        -0.298183         0.095049
 C        -0.240887         0.568422         0.967577
 C        -1.602709        -0.031459         1.493290
 C        -1.811813         1.487753         1.947497
 C        -3.070638         2.049656         1.375426
 O        -2.434469         1.898224         0.040312
 C        -1.064829         1.861928         0.592435
 C        -0.899010         1.652136         3.131191
 C         0.450934         1.090239         2.344903
 H         1.301974         0.364852        -0.196423
 H        -2.343202        -0.432836         0.801613
 H        -1.532696        -0.746148         2.298384
 H        -4.007581         1.436598         1.350775
 H        -3.192123         3.150687         1.405026
 H        -0.591109         2.722819         0.260161
 H        -0.760634         2.728302         3.405213
 H        -1.193082         1.030096         4.005094
 H         1.160960         2.018786         2.198330
 H         0.956877         0.362325         2.990303
