19
Iteration:  1899
 O         0.653797        -0.058733         0.186404
 C        -0.346188         0.516837         0.985483
 C        -1.593035        -0.147405         1.560802
 C        -1.847317         1.455594         1.976810
 C        -2.987825         2.155115         1.325721
 O        -2.407608         1.867622        -0.026193
 C        -1.091879         1.778260         0.657394
 C        -0.803968         1.638091         3.097641
 C         0.388607         1.068564         2.268550
 H         0.323719        -0.563635        -0.631939
 H        -2.287952        -0.410546         0.701794
 H        -1.564165        -0.843533         2.463362
 H        -4.051008         1.710234         1.227218
 H        -3.020892         3.224459         1.403960
 H        -0.641387         2.791430         0.629799
 H        -0.679704         2.703500         3.307117
 H        -0.972516         1.076638         4.014347
 H         1.110371         1.815221         2.016031
 H         1.059098         0.362083         2.753030
