19
Iteration:  2242charge 0 multiplicity 1
 O         0.702940        -0.163620         0.219079
 C        -0.345773         0.574465         0.948313
 C        -1.571534        -0.091067         1.563833
 C        -1.843472         1.521165         1.945812
 C        -3.035020         2.042074         1.324480
 O        -2.454102         1.984733        -0.040143
 C        -1.152854         1.829109         0.628042
 C        -0.755336         1.675847         3.111976
 C         0.434913         0.964263         2.296765
 H         0.261830        -0.550035        -0.599557
 H        -2.227664        -0.360762         0.687931
 H        -1.631994        -0.876705         2.341039
 H        -4.029610         1.426135         1.332783
 H        -3.191613         3.122308         1.645111
 H        -0.539589         2.825439         0.486545
 H        -0.542635         2.706389         3.476826
 H        -1.009754         1.057365         3.994907
 H         1.247111         1.718023         2.148907
 H         0.748138        -0.001675         2.706677
