19
Iteration:   940charge 0 multiplicity 1
 O         0.502725        -0.105140         0.087156
 C        -0.279507         0.557134         1.039749
 C        -1.565690        -0.037058         1.689674
 C        -1.778680         1.472600         1.972094
 C        -3.019012         1.951843         1.317646
 O        -2.376946         1.855289        -0.083039
 C        -1.146405         1.834559         0.634714
 C        -0.759069         1.677590         3.043541
 C         0.437699         1.140867         2.235141
 H         0.890660        -0.908911         0.371285
 H        -2.329764        -0.311220         0.986997
 H        -1.675513        -0.614662         2.697352
 H        -3.852863         1.210366         1.326329
 H        -3.480375         2.971484         1.573755
 H        -0.512898         2.799144         0.513904
 H        -0.775817         2.667106         3.471393
 H        -1.018533         1.034832         3.994634
 H         1.012028         2.036790         1.925182
 H         0.892982         0.334704         2.784752
