19
Iteration:  2880
 O         0.511855        -0.089056         0.088061
 C        -0.277775         0.544603         1.081320
 C        -1.573619        -0.040894         1.540261
 C        -1.816906         1.460155         1.962519
 C        -3.038787         2.064755         1.323180
 O        -2.302310         1.882232        -0.012807
 C        -0.967333         1.863444         0.652844
 C        -0.878425         1.588316         3.110847
 C         0.380907         1.030088         2.285594
 H         0.014280        -0.538720        -0.590383
 H        -2.213646        -0.333855         0.743462
 H        -1.683941        -0.657079         2.454713
 H        -4.005358         1.668806         1.323006
 H        -3.019133         3.180198         1.374100
 H        -0.326471         2.780158         0.552575
 H        -0.932801         2.622769         3.511412
 H        -1.304709         0.950247         3.985881
 H         1.217864         1.753992         2.006345
 H         0.804341         0.147648         2.869255
