19
Iteration:  1973
 O         0.635173        -0.095837         0.161627
 C        -0.330770         0.495889         0.992682
 C        -1.634792        -0.068511         1.601491
 C        -1.819308         1.408843         1.997617
 C        -3.105359         1.996657         1.235927
 O        -2.332660         1.967871         0.021281
 C        -1.063607         1.837326         0.691859
 C        -0.727226         1.710235         3.028743
 C         0.373943         1.005347         2.266639
 H         0.230431        -0.179471        -0.697571
 H        -2.498209        -0.369261         0.992096
 H        -1.430474        -0.770097         2.378809
 H        -3.829342         1.153214         1.210987
 H        -3.545861         3.056196         1.487612
 H        -0.551070         2.873141         0.584469
 H        -0.749245         2.808045         3.093799
 H        -1.040971         1.453830         4.075488
 H         1.363617         1.538772         2.225200
 H         0.736657         0.243770         2.858026
