19
Iteration:  3154
 O         0.600295        -0.085257         0.109795
 C        -0.292175         0.498184         0.968831
 C        -1.675552         0.013439         1.563381
 C        -1.830224         1.493039         1.997202
 C        -3.071039         2.128489         1.224228
 O        -2.339894         1.832563        -0.019346
 C        -1.046085         1.852921         0.728950
 C        -0.806724         1.598421         3.113448
 C         0.468560         0.982840         2.355359
 H         0.087405        -0.612147        -0.466837
 H        -2.392651        -0.185895         0.708344
 H        -1.689506        -0.829766         2.300907
 H        -4.056852         1.640796         1.425100
 H        -3.162685         3.277528         1.217070
 H        -0.542815         2.935660         0.526857
 H        -0.588647         2.564654         3.530468
 H        -1.034954         0.903019         3.965708
 H         1.132614         1.807102         2.101981
 H         0.960049         0.123705         2.741119
