19
Iteration:  2414charge 0 multiplicity 1
 O         0.563843        -0.055792         0.095002
 C        -0.267116         0.456688         1.066722
 C        -1.676644        -0.103194         1.587802
 C        -1.844419         1.446953         1.958134
 C        -3.003672         2.161819         1.286633
 O        -2.304784         1.868060        -0.012908
 C        -1.015440         1.774252         0.680289
 C        -0.847911         1.589179         3.070088
 C         0.379509         1.069582         2.296725
 H         0.012093         0.026825        -0.672264
 H        -2.434912        -0.370984         0.774028
 H        -1.610491        -0.841726         2.461327
 H        -3.910400         1.630086         1.468589
 H        -2.875283         3.318260         1.502226
 H        -0.545046         2.903278         0.431010
 H        -0.573826         2.617095         3.455961
 H        -1.077022         0.917155         3.977281
 H         1.001412         1.965400         2.035697
 H         1.014296         0.478315         2.809126
