19
Iteration:  3537
 O         0.672518        -0.058442         0.071389
 C        -0.314901         0.517907         1.009838
 C        -1.682473        -0.011313         1.506611
 C        -1.890651         1.401333         1.981431
 C        -2.998397         2.095895         1.296874
 O        -2.289679         1.940646        -0.025776
 C        -1.043599         1.879378         0.794629
 C        -0.845222         1.666122         3.074932
 C         0.336358         0.879171         2.351538
 H         0.308241        -0.849776        -0.436207
 H        -2.370587        -0.234733         0.687156
 H        -1.542446        -0.868736         2.226887
 H        -4.083921         1.650884         1.224229
 H        -3.116398         3.140924         1.536783
 H        -0.569629         2.772781         0.607781
 H        -0.629613         2.701585         3.088846
 H        -0.898283         1.302026         4.150067
 H         1.219311         1.499877         2.011750
 H         0.663945         0.022973         2.897067
