19
Iteration:   589
 O         0.471388        -0.143944         0.106789
 C        -0.264782         0.608829         1.073047
 C        -1.541620        -0.094646         1.569635
 C        -1.854304         1.386985         1.959522
 C        -3.035885         2.093913         1.248608
 O        -2.361355         1.816723        -0.022409
 C        -1.091625         1.856840         0.638937
 C        -0.866645         1.644181         3.076796
 C         0.487033         1.067562         2.375571
 H         0.826928         0.424400        -0.602361
 H        -2.144061        -0.533475         0.793092
 H        -1.306123        -0.817854         2.403189
 H        -4.046995         1.754450         1.419453
 H        -2.979591         3.154124         1.547575
 H        -0.545170         2.890795         0.503382
 H        -0.735958         2.727396         3.221667
 H        -1.124290         1.277133         4.055641
 H         1.220992         1.834405         2.163533
 H         0.915312         0.139996         2.752485
