19
Iteration:  4452
 O         0.540789        -0.041522         0.008676
 C        -0.280507         0.456451         1.073149
 C        -1.757381        -0.080251         1.499824
 C        -1.933259         1.366403         1.973083
 C        -2.953643         2.206474         1.216564
 O        -2.181062         2.093430        -0.032503
 C        -1.013681         1.830425         0.798063
 C        -0.902844         1.497100         3.088897
 C         0.374510         0.917036         2.341720
 H         0.895780        -0.855792         0.371890
 H        -2.297726        -0.334811         0.582396
 H        -1.801602        -0.904026         2.315905
 H        -4.021971         1.981561         1.245027
 H        -2.852364         3.312625         1.505452
 H        -0.439778         2.666614         0.701295
 H        -0.663344         2.562687         3.449101
 H        -1.133972         0.997161         4.075680
 H         1.143538         1.717603         2.103709
 H         0.851660         0.098954         3.038747
