19
Iteration:   162charge 0 multiplicity 1
 O         0.472325        -0.268869         0.056250
 C        -0.170451         0.570332         0.995802
 C        -1.382865        -0.085243         1.570983
 C        -1.818630         1.488195         1.981098
 C        -3.173453         2.035203         1.201556
 O        -2.442783         1.846070         0.071504
 C        -1.166245         1.831524         0.699123
 C        -0.836818         1.700828         3.055191
 C         0.424234         1.184272         2.333036
 H         1.410277        -0.233952         0.037650
 H        -1.938097        -0.564348         0.778603
 H        -1.137624        -0.743328         2.406129
 H        -4.062445         1.447484         1.253004
 H        -3.328829         3.129025         1.453149
 H        -0.537592         2.806666         0.430735
 H        -0.596139         2.797570         3.319657
 H        -1.072728         1.282268         3.996739
 H         1.144142         2.047891         2.199400
 H         0.958175         0.475417         2.949195
