19
Iteration:  1670charge 0 multiplicity 1
 O         0.527873        -0.236473         0.168325
 C        -0.283824         0.538491         1.037349
 C        -1.514274        -0.081963         1.527681
 C        -1.816011         1.450894         1.962527
 C        -3.078691         2.145144         1.278541
 O        -2.341790         1.860114        -0.040021
 C        -1.087001         1.834992         0.680695
 C        -0.811365         1.624578         3.113743
 C         0.411856         1.158287         2.294049
 H         0.125920        -0.114292        -0.756739
 H        -2.199368        -0.514642         0.800883
 H        -1.333292        -0.831536         2.331511
 H        -3.983581         1.664797         1.246638
 H        -3.014178         3.261953         1.568016
 H        -0.471053         2.723077         0.629494
 H        -0.951470         2.691949         3.369219
 H        -1.189581         1.141383         3.991071
 H         1.040047         1.952175         2.106711
 H         0.987237         0.384328         2.840045
