19
Iteration:  1782
 O         0.703736        -0.145210         0.181577
 C        -0.281869         0.478066         0.963982
 C        -1.633994        -0.096953         1.557410
 C        -1.799662         1.416805         2.036775
 C        -3.039710         2.085222         1.301028
 O        -2.429261         1.974104        -0.064108
 C        -1.100383         1.756089         0.585696
 C        -0.808776         1.644818         3.149077
 C         0.359154         1.139470         2.274291
 H         0.144754        -0.501153        -0.505374
 H        -2.394540        -0.326812         0.798693
 H        -1.572705        -0.758836         2.383501
 H        -3.991924         1.625735         1.307644
 H        -2.889825         3.224728         1.708662
 H        -0.470234         2.657791         0.603432
 H        -0.806257         2.741395         3.336048
 H        -1.102878         1.026427         4.057907
 H         1.107271         1.907339         2.154745
 H         1.084541         0.446675         2.767278
