19
Iteration:   734charge 0 multiplicity 1
 O         0.630926        -0.128233         0.056036
 C        -0.311284         0.571623         1.013062
 C        -1.635095        -0.010918         1.629912
 C        -1.847291         1.500442         1.969383
 C        -3.093417         2.130227         1.241737
 O        -2.363044         1.765930         0.004252
 C        -1.110135         1.831796         0.746248
 C        -0.805130         1.640492         3.111827
 C         0.434182         1.025484         2.191280
 H         1.491465        -0.187827         0.543193
 H        -2.450900        -0.215791         0.891454
 H        -1.411270        -0.540440         2.605792
 H        -4.066520         1.614485         1.208405
 H        -3.344032         3.199082         1.266880
 H        -0.721674         2.942873         0.500815
 H        -0.708396         2.574551         3.617440
 H        -0.983068         0.866678         3.865315
 H         1.257264         1.633282         1.833041
 H         0.899849         0.026084         2.768533
