19
Iteration:  2849
 O         0.587215        -0.180668         0.011361
 C        -0.240825         0.537226         1.012816
 C        -1.564996        -0.043326         1.525183
 C        -1.829753         1.487241         2.053170
 C        -3.089630         1.971989         1.216430
 O        -2.331078         1.969539        -0.080704
 C        -1.107879         1.968957         0.729277
 C        -0.793968         1.724832         3.216784
 C         0.427654         0.907734         2.350126
 H         0.018569        -0.883874        -0.397200
 H        -2.280189        -0.169128         0.771701
 H        -1.685927        -0.739793         2.332593
 H        -4.026214         1.250398         1.300133
 H        -3.396855         3.135184         1.289509
 H        -0.459331         2.999880         0.907329
 H        -0.688795         2.824245         3.251121
 H        -1.254872         1.356821         4.192800
 H         1.301838         1.458029         2.278204
 H         0.609819        -0.115788         2.845109
