19
Iteration:  1461
 O         0.682731        -0.113808         0.168972
 C        -0.374926         0.499601         0.987551
 C        -1.670538        -0.023612         1.608066
 C        -1.885409         1.464850         1.927738
 C        -3.009953         2.063547         1.245830
 O        -2.363626         1.894654        -0.053021
 C        -1.056272         1.843092         0.734477
 C        -0.798920         1.637103         3.103431
 C         0.423243         1.060577         2.267246
 H         0.204261        -0.630755        -0.523251
 H        -2.431834        -0.388548         0.835327
 H        -1.616514        -0.752501         2.466634
 H        -3.877185         1.474712         1.343144
 H        -3.079334         3.104246         1.572474
 H        -0.533139         2.845241         0.625566
 H        -0.484182         2.664970         3.557508
 H        -1.094655         1.073847         4.018366
 H         1.100359         1.795916         1.906550
 H         1.016758         0.169392         2.761850
