19
Iteration:  2725
 O         0.568801        -0.102615         0.051417
 C        -0.249347         0.478093         1.035732
 C        -1.577191        -0.006559         1.574609
 C        -1.873596         1.437229         1.958563
 C        -3.115979         1.949034         1.217535
 O        -2.294184         2.045623        -0.040837
 C        -1.060571         1.881671         0.832007
 C        -0.849758         1.756506         3.034757
 C         0.415035         0.846877         2.377106
 H         0.160430        -0.704216        -0.571240
 H        -2.352606        -0.430357         0.885952
 H        -1.530220        -0.746307         2.364520
 H        -4.016178         1.457413         1.390139
 H        -3.438183         3.064774         1.355422
 H        -0.393146         2.792851         0.788169
 H        -0.449049         2.804911         3.078651
 H        -0.922437         1.394349         4.075607
 H         1.271175         1.509662         2.178460
 H         0.849650         0.050096         2.832510
