19
Iteration:  4163charge 0 multiplicity 1
 O         0.674621        -0.172117         0.071669
 C        -0.297296         0.491637         1.021072
 C        -1.675788        -0.069226         1.429581
 C        -1.814971         1.399116         1.941105
 C        -2.968412         2.201785         1.307163
 O        -2.279737         2.093376        -0.046332
 C        -0.988652         1.856431         0.755442
 C        -0.945856         1.636663         3.125248
 C         0.272135         0.799370         2.414896
 H         0.256135         0.020468        -0.768704
 H        -2.202913        -0.288802         0.492811
 H        -1.830692        -0.876262         2.192720
 H        -3.934115         1.855555         1.276439
 H        -2.968620         3.210145         1.755244
 H        -0.387361         2.787446         0.843715
 H        -0.806449         2.769979         3.228923
 H        -1.357979         1.276498         4.092612
 H         1.287997         1.262679         2.435877
 H         0.494569        -0.156685         3.020932
