19
Iteration:   498
 O         0.579898        -0.274483         0.071660
 C        -0.224231         0.533935         0.966471
 C        -1.569687        -0.023781         1.465029
 C        -1.835119         1.457444         1.998794
 C        -2.987904         2.095465         1.325617
 O        -2.437586         1.835100         0.035882
 C        -1.066685         1.822854         0.676151
 C        -0.871871         1.632187         3.129209
 C         0.324083         1.184386         2.334195
 H         1.484239        -0.001870         0.120019
 H        -2.203249        -0.269558         0.579333
 H        -1.375755        -0.741116         2.230561
 H        -4.049733         1.777524         1.269944
 H        -2.973341         3.155648         1.486428
 H        -0.618121         2.910564         0.486626
 H        -0.877783         2.671895         3.543177
 H        -0.989373         0.970427         4.042186
 H         0.983298         2.055808         1.929985
 H         0.946181         0.448178         2.757635
