19
Iteration:  3971
 O         0.492514        -0.143221         0.093639
 C        -0.337258         0.597337         0.981976
 C        -1.627180        -0.031166         1.472167
 C        -1.868841         1.437310         1.977191
 C        -3.015091         2.111707         1.146773
 O        -2.227709         2.112832        -0.066265
 C        -0.940612         1.967699         0.732943
 C        -0.889653         1.421394         3.245613
 C         0.413376         0.915698         2.409048
 H         0.179758        -1.089923        -0.023533
 H        -2.233071        -0.315572         0.628273
 H        -1.487045        -0.819707         2.182933
 H        -4.035849         1.574457         1.069258
 H        -3.378952         3.171978         1.249408
 H        -0.278243         2.793027         0.822178
 H        -0.770045         2.359108         3.734284
 H        -1.316743         0.639925         3.947927
 H         1.334422         1.505904         2.427183
 H         0.771039         0.032613         2.843475
