19
Iteration:  4613
 O         0.530692        -0.273493         0.144174
 C        -0.255841         0.562838         0.925515
 C        -1.623122         0.070719         1.385875
 C        -1.859073         1.487865         1.978470
 C        -3.109017         2.124279         1.213067
 O        -2.194880         2.154317         0.045707
 C        -0.992914         1.934562         0.833613
 C        -0.904592         1.421879         3.139227
 C         0.354086         0.887866         2.268546
 H         0.590912        -1.134323         0.496186
 H        -2.250871        -0.205410         0.606757
 H        -1.497838        -0.601685         2.175918
 H        -3.927119         1.378746         1.067202
 H        -3.499935         3.151736         1.350003
 H        -0.212274         2.848435         0.740247
 H        -0.579081         2.329896         3.494715
 H        -1.286143         1.026404         4.060779
 H         1.069659         1.631645         2.375042
 H         0.742899         0.001243         2.573216
