19
Iteration:  3025charge 0 multiplicity 1
 O         0.623784        -0.140446         0.060866
 C        -0.239167         0.514606         0.970427
 C        -1.639321        -0.127543         1.530201
 C        -1.803659         1.471277         1.958892
 C        -3.024965         2.195782         1.319271
 O        -2.355938         1.867567         0.004214
 C        -1.037048         1.831303         0.704431
 C        -0.885070         1.630449         3.106603
 C         0.371465         1.026785         2.355000
 H         0.000718        -0.304322        -0.710690
 H        -2.317794        -0.505293         0.748534
 H        -1.761048        -0.666297         2.442892
 H        -4.017188         1.775040         1.299523
 H        -3.083403         3.271954         1.510930
 H        -0.510514         2.782222         0.602453
 H        -0.643606         2.680713         3.490128
 H        -1.144249         1.006592         4.034727
 H         1.053411         1.810263         1.997131
 H         1.071372         0.388185         3.116101
