19
Iteration:    38
 O         0.572606        -0.231031         0.097514
 C        -0.243619         0.512642         1.030470
 C        -1.515323        -0.059239         1.648083
 C        -1.824881         1.460052         1.987931
 C        -3.072068         1.914548         1.271851
 O        -2.472527         1.857626        -0.079146
 C        -1.152654         1.842618         0.668567
 C        -0.790703         1.705891         3.105298
 C         0.453330         1.215557         2.240978
 H         1.438942         0.137932         0.075360
 H        -2.294590        -0.626435         1.001420
 H        -1.332627        -0.675381         2.594894
 H        -4.077536         1.378894         1.368067
 H        -3.323224         2.972875         1.493974
 H        -0.703656         2.956158         0.650428
 H        -0.701721         2.806082         3.226630
 H        -1.058852         1.320336         4.212940
 H         0.679798         2.219629         1.826491
 H         1.351410         0.755905         2.723489
