19
Iteration:   994
 O         0.540650         0.047967         0.042795
 C        -0.302195         0.509155         0.989883
 C        -1.594661        -0.115207         1.643572
 C        -1.794644         1.426740         1.963024
 C        -3.057711         2.063707         1.319198
 O        -2.444971         1.713503        -0.023539
 C        -1.013203         1.765439         0.686121
 C        -0.774056         1.857938         3.018044
 C         0.461755         1.016120         2.311137
 H         0.631318        -0.856999         0.244119
 H        -2.372989        -0.402850         0.988877
 H        -1.509626        -0.609387         2.632680
 H        -3.985975         1.501739         1.385654
 H        -3.049403         3.165939         1.404756
 H        -0.547642         2.817127         0.434179
 H        -0.878355         2.930109         3.153305
 H        -1.061879         1.275566         4.011295
 H         1.209003         1.823576         2.199658
 H         0.764900         0.272650         2.969581
