19
Iteration:  2286charge 0 multiplicity 1
 O         0.533787        -0.101523         0.053323
 C        -0.283928         0.542299         1.007032
 C        -1.599273        -0.084944         1.590740
 C        -1.810134         1.437598         2.028411
 C        -2.998288         2.176734         1.265367
 O        -2.325654         1.794223        -0.083066
 C        -1.078941         1.790850         0.706838
 C        -0.855566         1.621039         3.214541
 C         0.439288         1.085230         2.312966
 H        -0.033480         0.004170        -0.775526
 H        -2.405877        -0.395193         0.898476
 H        -1.323220        -0.843725         2.340477
 H        -4.131397         1.861617         1.274698
 H        -3.078629         3.265126         1.206034
 H        -0.577479         2.824232         0.485152
 H        -0.698903         2.661268         3.534431
 H        -1.055264         0.912648         4.046590
 H         1.164981         1.970493         2.016047
 H         0.889706         0.213244         2.852884
