19
Iteration:  3339charge 0 multiplicity 1
 O         0.625707        -0.199474         0.244514
 C        -0.289587         0.498474         0.986658
 C        -1.613723        -0.079591         1.620353
 C        -1.823643         1.468169         1.922483
 C        -3.116909         2.013464         1.251150
 O        -2.332280         2.164079         0.001334
 C        -1.127367         1.800709         0.648367
 C        -0.838333         1.584090         3.037734
 C         0.436796         1.032059         2.270453
 H         0.505041        -0.014318        -0.663937
 H        -2.181776        -0.464444         0.722343
 H        -1.604161        -0.784209         2.502442
 H        -3.931103         1.206700         1.410284
 H        -3.366100         2.935335         1.628827
 H        -0.439822         2.609316         0.606268
 H        -0.613718         2.595065         3.320553
 H        -1.003006         1.032941         3.983572
 H         1.234634         1.798318         1.845587
 H         1.012011         0.239228         2.780497
