19
Iteration:  2208charge 0 multiplicity 1
 O         0.663063        -0.223523         0.142468
 C        -0.316462         0.530544         0.969406
 C        -1.631198        -0.129318         1.587939
 C        -1.868933         1.396858         1.987642
 C        -3.096378         1.924192         1.309446
 O        -2.320318         2.145112         0.039953
 C        -1.091237         1.830318         0.720700
 C        -0.851925         1.794964         2.994380
 C         0.443029         1.029529         2.264452
 H         0.224281        -0.745044        -0.628773
 H        -2.148900        -0.561637         0.672682
 H        -1.580207        -0.807727         2.509776
 H        -4.034358         1.262170         1.059591
 H        -3.556723         2.892932         1.662955
 H        -0.372783         2.788708         0.769619
 H        -0.550402         2.867215         3.037859
 H        -0.991718         1.396712         4.037692
 H         1.380139         1.786559         2.109065
 H         0.940502         0.245312         2.759678
