19
Iteration:  1381
 O         0.582720        -0.112642         0.082173
 C        -0.312439         0.455344         0.999545
 C        -1.652024        -0.075779         1.593489
 C        -1.839317         1.347347         1.967610
 C        -3.050588         2.008278         1.284126
 O        -2.383271         1.974758        -0.048860
 C        -1.093260         1.800081         0.686492
 C        -0.766975         1.804717         3.068391
 C         0.397758         1.003955         2.343277
 H         1.513336         0.045790         0.403963
 H        -2.383658        -0.325459         0.831799
 H        -1.491516        -0.860347         2.363803
 H        -3.989007         1.549306         1.440570
 H        -3.232253         3.092477         1.486411
 H        -0.494273         2.684236         0.448944
 H        -0.676809         2.918648         2.951351
 H        -0.916050         1.425045         4.076036
 H         1.241849         1.670694         2.067340
 H         0.865775         0.263759         2.988351
