19
Iteration:  4007charge 0 multiplicity 1
 O         0.519527        -0.004600        -0.036845
 C        -0.326395         0.535510         1.046265
 C        -1.741589        -0.007605         1.438813
 C        -1.857167         1.429803         1.953520
 C        -2.945863         2.129600         1.230440
 O        -2.194875         1.984901        -0.019858
 C        -0.891123         1.846194         0.708261
 C        -0.963280         1.555363         3.156090
 C         0.343759         0.852527         2.466858
 H         0.880934        -0.862052         0.359628
 H        -2.431295        -0.192089         0.629524
 H        -1.696777        -0.862670         2.124258
 H        -3.851087         1.608565         1.374913
 H        -2.912418         3.238635         1.643886
 H        -0.345402         2.864378         0.697378
 H        -0.799595         2.622480         3.518938
 H        -1.197204         0.953501         4.051215
 H         1.168560         1.386627         2.452549
 H         0.406614        -0.138809         2.952157
