19
Iteration:   751
 O         0.610402        -0.085587         0.143438
 C        -0.304499         0.487624         0.954841
 C        -1.645444        -0.088638         1.652956
 C        -1.889615         1.442329         1.988104
 C        -3.088318         2.078366         1.239493
 O        -2.396552         1.928226        -0.037188
 C        -1.122743         1.816423         0.659344
 C        -0.704244         1.644323         3.051666
 C         0.442374         1.038225         2.236159
 H         1.406027        -0.250325         0.721343
 H        -2.382811        -0.532341         0.940265
 H        -1.545380        -0.769612         2.481571
 H        -4.052030         1.562320         1.389662
 H        -3.243801         3.141018         1.567958
 H        -0.469919         2.664047         0.542661
 H        -0.580593         2.729290         3.328229
 H        -0.973245         1.172070         4.036530
 H         1.159398         1.915732         2.071711
 H         0.839239         0.250895         2.731842
