19
Iteration:   415charge 0 multiplicity 1
 O         0.428742        -0.073676        -0.001193
 C        -0.245341         0.575198         0.968940
 C        -1.523761        -0.050846         1.502859
 C        -1.771730         1.396762         2.034565
 C        -3.039254         1.937596         1.278440
 O        -2.355893         1.883845        -0.031386
 C        -1.029215         1.797901         0.657665
 C        -0.875205         1.763103         3.116051
 C         0.456907         1.101505         2.502508
 H         0.412859        -1.068218         0.110563
 H        -2.262044        -0.175366         0.712223
 H        -1.624275        -0.979768         2.098447
 H        -3.992177         1.422890         1.201459
 H        -3.110562         3.032986         1.484760
 H        -0.470919         2.637777         0.471755
 H        -0.836977         2.877646         3.016806
 H        -1.076112         1.502165         4.124399
 H         1.275676         1.810344         2.390268
 H         0.684815         0.115828         3.086566
