19
Iteration:  3841
 O         0.477773        -0.136077         0.059649
 C        -0.303879         0.565567         1.042818
 C        -1.582777        -0.112139         1.510218
 C        -1.891126         1.396414         1.945822
 C        -2.986112         2.162596         1.182346
 O        -2.143322         2.034221        -0.005283
 C        -1.037248         1.880700         0.777726
 C        -0.882618         1.543553         3.121494
 C         0.350290         0.960123         2.378361
 H        -0.221874        -0.512539        -0.512166
 H        -2.293171        -0.309560         0.708142
 H        -1.666406        -0.893070         2.215751
 H        -3.877971         1.641000         1.053895
 H        -3.149748         3.242752         1.500354
 H        -0.279378         2.798723         0.776519
 H        -0.896512         2.574321         3.415350
 H        -0.949755         0.936395         4.059657
 H         1.121760         1.675124         2.267493
 H         0.705649         0.109131         3.050475
