19
Iteration:   352
 O         0.624161        -0.208678         0.196011
 C        -0.242974         0.455530         1.024760
 C        -1.563714        -0.094148         1.442178
 C        -1.766858         1.520279         1.926453
 C        -3.056604         2.042695         1.353794
 O        -2.507799         1.870660        -0.029723
 C        -1.084567         1.801071         0.678992
 C        -0.810085         1.694821         3.070428
 C         0.398598         1.129593         2.320984
 H         0.781337         0.412664        -0.590985
 H        -2.270192        -0.087224         0.666746
 H        -1.595088        -0.781186         2.319729
 H        -4.016094         1.543483         1.608746
 H        -3.036459         3.123456         1.457507
 H        -0.481128         2.783607         0.424148
 H        -0.782316         2.751205         3.352643
 H        -1.069437         1.075559         3.979571
 H         1.035700         1.964518         2.162993
 H         0.918263         0.401383         3.060278
