19
Iteration:  2311charge 0 multiplicity 1
 O         0.550157        -0.077920         0.089474
 C        -0.316660         0.535022         1.049844
 C        -1.617239        -0.099244         1.705485
 C        -1.834658         1.404443         1.974112
 C        -3.041087         1.994011         1.188243
 O        -2.284563         1.999125        -0.025604
 C        -1.083446         1.825033         0.771423
 C        -0.779923         1.680037         3.038689
 C         0.421907         1.005873         2.271876
 H        -0.078309        -0.190468        -0.640983
 H        -2.321998        -0.525236         1.044027
 H        -1.432869        -0.733404         2.530542
 H        -4.021452         1.392396         1.119570
 H        -3.392135         3.109173         1.424476
 H        -0.456638         2.857027         0.521001
 H        -0.515566         2.719743         3.251057
 H        -1.124051         1.203120         3.940301
 H         1.128572         1.666458         1.993621
 H         0.818552         0.012744         2.713764
