19
Iteration:  1702
 O         0.524009        -0.101879         0.041779
 C        -0.301448         0.533074         1.043306
 C        -1.585421        -0.015241         1.666324
 C        -1.844207         1.455113         2.005243
 C        -3.054912         2.000570         1.207439
 O        -2.252365         1.884579        -0.034297
 C        -1.051203         1.793625         0.710811
 C        -0.816541         1.651773         3.085075
 C         0.406758         1.106780         2.298620
 H        -0.073786        -0.532809        -0.522836
 H        -2.318118        -0.379338         0.906387
 H        -1.424611        -0.742846         2.545711
 H        -4.037095         1.687359         1.137020
 H        -3.354397         3.055810         1.666700
 H        -0.347267         2.568155         0.581789
 H        -0.920887         2.737138         3.300107
 H        -1.042819         1.116714         3.981723
 H         1.153944         1.820411         2.012458
 H         0.823871         0.228398         2.979084
