19
Iteration:  1830
 O         0.523874        -0.182226         0.097232
 C        -0.267893         0.611919         0.962308
 C        -1.553902         0.005612         1.560111
 C        -1.873846         1.391410         2.027544
 C        -3.053505         2.005347         1.220706
 O        -2.327049         1.873218        -0.031717
 C        -1.075706         1.901357         0.656646
 C        -0.817641         1.703582         3.181614
 C         0.433886         1.058920         2.362214
 H        -0.074998        -0.621670        -0.600533
 H        -2.151405        -0.252341         0.688632
 H        -1.526861        -0.839469         2.280357
 H        -3.859466         1.182840         1.368953
 H        -3.263261         3.077423         1.372532
 H        -0.442073         2.836556         0.442069
 H        -0.594003         2.753409         3.455411
 H        -1.064663         1.123597         4.101932
 H         1.301426         1.728767         2.368847
 H         0.864581         0.208959         2.733042
