19
Iteration:   286charge 0 multiplicity 1
 O         0.530386        -0.071921         0.029185
 C        -0.266971         0.475860         1.019978
 C        -1.695468        -0.002837         1.680268
 C        -1.867612         1.445325         1.996609
 C        -3.163168         1.918247         1.188805
 O        -2.325529         1.908078        -0.015018
 C        -1.063387         1.806692         0.717201
 C        -0.736255         1.655355         3.095971
 C         0.468016         1.158834         2.297819
 H         1.375934        -0.196900         0.409815
 H        -2.419304        -0.319333         0.922250
 H        -1.591571        -0.594118         2.628306
 H        -4.025394         1.179232         1.237962
 H        -3.528584         2.982133         1.325115
 H        -0.287805         2.563004         0.195283
 H        -0.532532         2.745566         3.192842
 H        -0.801602         1.106968         4.079937
 H         1.241885         1.838461         2.009369
 H         1.015857         0.218343         2.721461
