19
Iteration:  3003charge 0 multiplicity 1
 O         0.539707        -0.013658         0.105284
 C        -0.386316         0.601515         1.020416
 C        -1.636115        -0.089283         1.652849
 C        -1.906368         1.371053         2.120793
 C        -2.961053         2.104146         1.149043
 O        -2.264359         1.923148        -0.061621
 C        -1.060972         1.821072         0.634878
 C        -0.803293         1.575498         3.152103
 C         0.424802         1.016459         2.259360
 H        -0.046640        -0.641434        -0.312698
 H        -2.378136        -0.379899         0.893836
 H        -1.505279        -0.913601         2.305009
 H        -3.921779         1.642432         1.280229
 H        -3.051562         3.191396         1.322766
 H        -0.405157         2.711208         0.637987
 H        -0.741293         2.690375         3.397929
 H        -0.880752         0.997084         4.155237
 H         1.250177         1.641191         1.913688
 H         1.061642         0.099977         2.746059
