19
Iteration:  4864
 O         0.486022        -0.050642        -0.011950
 C        -0.381788         0.485440         1.029490
 C        -1.659459        -0.068180         1.604293
 C        -1.806494         1.360176         1.974161
 C        -2.907622         2.081743         1.249086
 O        -2.095943         2.170493        -0.040541
 C        -0.928164         1.796841         0.803903
 C        -0.994188         1.581116         3.056054
 C         0.274210         0.920780         2.347989
 H        -0.012485        -0.829870        -0.427529
 H        -2.447484        -0.364103         0.909693
 H        -1.475316        -0.766404         2.315442
 H        -3.806292         1.448095         1.059182
 H        -3.137675         3.012423         1.601299
 H        -0.142092         2.616859         0.717717
 H        -0.923324         2.649294         3.353494
 H        -1.235379         1.193539         4.140075
 H         1.134105         1.560700         2.347101
 H         0.490072         0.069227         2.949789
