19
Iteration:  3856charge 0 multiplicity 1
 O         0.487928        -0.021487         0.058307
 C        -0.345325         0.489911         1.010017
 C        -1.755444        -0.028446         1.502035
 C        -1.817935         1.473914         1.977961
 C        -2.987132         2.092509         1.179905
 O        -2.194060         2.013302        -0.049079
 C        -0.904643         1.863672         0.763982
 C        -0.882738         1.508205         3.175663
 C         0.378052         0.936065         2.405683
 H         0.217931        -0.953289        -0.201541
 H        -2.381709        -0.467305         0.716737
 H        -1.554932        -0.731952         2.384061
 H        -3.982418         1.592801         1.114697
 H        -3.252571         3.103423         1.377909
 H        -0.350168         2.721377         0.755553
 H        -0.555502         2.502039         3.594916
 H        -1.348624         0.910812         3.935932
 H         1.125742         1.808905         2.119550
 H         1.000888         0.015279         2.781346
