19
Iteration:  1176
 O         0.512251        -0.153495         0.061454
 C        -0.294998         0.550099         0.997077
 C        -1.546817        -0.111991         1.616277
 C        -1.873986         1.458924         1.960601
 C        -3.097194         2.018893         1.282833
 O        -2.361319         1.949847        -0.024706
 C        -1.024967         1.771032         0.664639
 C        -0.800857         1.694445         3.124445
 C         0.428558         1.132368         2.273240
 H         1.355920        -0.485304         0.553329
 H        -2.311760        -0.472336         0.969718
 H        -1.437829        -0.695316         2.576039
 H        -3.921927         1.205297         1.388304
 H        -3.472206         3.067051         1.475717
 H        -0.417665         2.583142         0.301219
 H        -0.684594         2.773369         3.298034
 H        -1.068662         1.185290         3.985633
 H         0.873451         2.021084         1.980077
 H         1.022739         0.302118         2.759783
