19
Iteration:  1477charge 0 multiplicity 1
 O         0.696033        -0.102601         0.166702
 C        -0.218009         0.552737         0.958998
 C        -1.625773        -0.135113         1.592155
 C        -1.822091         1.392157         2.035022
 C        -3.086108         2.162630         1.284497
 O        -2.388485         1.959081        -0.022340
 C        -1.129330         1.791355         0.616402
 C        -0.807659         1.688848         3.069009
 C         0.365442         0.980557         2.302384
 H         0.251576        -0.915105        -0.268545
 H        -2.336765        -0.357782         0.848116
 H        -1.542347        -0.810805         2.408730
 H        -4.214593         1.714810         1.169315
 H        -3.010915         3.261118         1.438524
 H        -0.607681         2.745040         0.582796
 H        -0.762341         2.703170         2.991810
 H        -0.903434         1.264692         4.064530
 H         1.259988         1.749384         2.234895
 H         0.667645         0.135845         2.832157
