19
Iteration:  4944charge 0 multiplicity 1
 O         0.685653        -0.182033         0.215532
 C        -0.308965         0.471278         0.970846
 C        -1.669027        -0.084718         1.465423
 C        -1.817188         1.474546         1.926462
 C        -2.953236         2.257167         1.319788
 O        -2.347285         2.127479        -0.007065
 C        -0.985876         1.807576         0.589468
 C        -0.950814         1.497957         3.169732
 C         0.291664         0.876999         2.335621
 H         0.524087        -0.054199        -0.763035
 H        -2.224617        -0.138544         0.558089
 H        -1.657795        -0.765594         2.302760
 H        -3.959896         1.900690         1.298783
 H        -2.966819         3.291035         1.655575
 H        -0.332166         2.684374         0.606967
 H        -0.583073         2.517140         3.599956
 H        -1.333221         0.717007         3.910600
 H         1.080448         1.600040         2.310572
 H         0.598098        -0.096488         2.771213
