19
Iteration:  2070
 O         0.563029        -0.247798         0.197664
 C        -0.253990         0.539511         1.009577
 C        -1.602125        -0.065392         1.554302
 C        -1.768246         1.399498         1.942612
 C        -3.128239         1.942954         1.293034
 O        -2.354305         2.082353        -0.004488
 C        -1.049082         1.894638         0.649750
 C        -0.848990         1.646544         3.091724
 C         0.450261         1.129041         2.265683
 H         0.019806        -0.565375        -0.510631
 H        -2.339609        -0.434026         0.840199
 H        -1.609679        -0.723305         2.379961
 H        -3.913791         1.213768         1.158311
 H        -3.488229         2.939163         1.508976
 H        -0.463548         2.767059         0.674504
 H        -0.880079         2.721021         3.353979
 H        -0.781791         1.120337         4.073381
 H         1.252200         1.932655         1.829926
 H         1.107470         0.228119         2.835954
