19
Iteration:  2651charge 0 multiplicity 1
 O         0.629804        -0.133737         0.251988
 C        -0.357512         0.493660         0.995541
 C        -1.624565        -0.021558         1.537895
 C        -1.824340         1.446144         2.000597
 C        -3.017761         2.252981         1.245009
 O        -2.457743         1.916910        -0.083990
 C        -1.096008         1.806489         0.635623
 C        -0.755609         1.434878         3.211498
 C         0.464523         1.094414         2.260007
 H         0.489970        -0.188034        -0.702435
 H        -2.285889        -0.296146         0.720561
 H        -1.609638        -0.753504         2.299917
 H        -4.162321         1.808245         1.146372
 H        -3.047625         3.302924         1.467718
 H        -0.395088         2.689158         0.377938
 H        -0.648783         2.443473         3.614936
 H        -1.037786         0.612288         3.835289
 H         1.183661         1.836079         1.999530
 H         1.127616         0.319656         2.837219
