19
Iteration:  2549
 O         0.641881        -0.182057         0.118799
 C        -0.313486         0.469751         0.992989
 C        -1.640426        -0.047042         1.522460
 C        -1.805042         1.529770         1.974816
 C        -3.101002         2.123822         1.299937
 O        -2.388064         1.924055        -0.052112
 C        -1.012711         1.811702         0.667443
 C        -0.808791         1.629692         3.172681
 C         0.434443         1.015534         2.341339
 H         0.278074        -0.066547        -0.771197
 H        -2.365653        -0.243704         0.744610
 H        -1.622867        -0.861753         2.264787
 H        -3.962884         1.458213         1.326290
 H        -3.240654         3.194910         1.586457
 H        -0.553237         2.896424         0.589263
 H        -0.818142         2.609312         3.659488
 H        -0.997146         0.985030         4.039137
 H         1.018513         1.826750         1.892937
 H         1.006294         0.316662         2.854636
