19
Iteration:  1216
 O         0.552253        -0.201333         0.186213
 C        -0.270839         0.571420         0.972877
 C        -1.612286        -0.063267         1.527890
 C        -1.829548         1.449912         1.971461
 C        -3.046165         2.134985         1.349667
 O        -2.429673         1.811992        -0.021628
 C        -1.118861         1.827373         0.625318
 C        -0.842531         1.622522         3.079984
 C         0.452564         1.136690         2.255967
 H         1.438740         0.034244         0.336819
 H        -2.006090        -0.631790         0.652050
 H        -1.322571        -0.770028         2.336969
 H        -3.957987         1.638935         1.311842
 H        -3.290323         3.159982         1.668056
 H        -0.486691         2.780743         0.463559
 H        -0.590545         2.741370         3.117222
 H        -1.002721         1.150816         4.103527
 H         1.211886         2.018855         2.123819
 H         1.077877         0.332352         2.764779
