19
Iteration:    21
 O         0.505863        -0.124721         0.166033
 C        -0.314150         0.598790         0.966350
 C        -1.429247        -0.109989         1.789942
 C        -1.886878         1.376796         1.965120
 C        -3.161902         2.004331         1.214295
 O        -2.399944         1.847529        -0.039275
 C        -1.158240         1.792451         0.642152
 C        -0.744710         1.682860         3.067539
 C         0.468285         1.264221         2.153599
 H         1.378450        -0.084474         0.530390
 H        -2.039510        -0.641764         1.132855
 H        -1.122393        -0.744798         2.602267
 H        -4.047162         1.420629         1.144136
 H        -3.485287         3.066168         1.370064
 H        -0.595468         2.627816         0.407338
 H        -0.620531         2.619533         3.670056
 H        -0.773570         0.971146         3.800392
 H         1.324457         1.940956         2.000102
 H         0.830579         0.336323         2.632803
