19
Iteration:  2006charge 0 multiplicity 1
 O         0.628085        -0.051604         0.085868
 C        -0.233874         0.508237         1.025604
 C        -1.580294        -0.080585         1.568512
 C        -1.821976         1.391639         1.963600
 C        -2.975671         2.156803         1.348607
 O        -2.422716         1.816760        -0.013840
 C        -1.075317         1.774189         0.666420
 C        -0.830581         1.720854         3.033497
 C         0.374712         0.970025         2.372792
 H         0.112991         0.062631        -0.785088
 H        -2.318109        -0.412877         0.831557
 H        -1.522461        -0.792370         2.372628
 H        -4.012169         1.866157         1.379848
 H        -3.060593         3.269124         1.386577
 H        -0.602451         2.826808         0.567990
 H        -0.829436         2.815086         2.993474
 H        -1.213395         1.391586         4.045030
 H         1.218757         1.701403         2.273178
 H         0.498765         0.117250         2.948672
