19
Iteration:  2831charge 0 multiplicity 1
 O         0.603822        -0.116731         0.135783
 C        -0.276335         0.540774         0.998456
 C        -1.642731        -0.034219         1.553180
 C        -1.847901         1.495282         1.936624
 C        -3.110402         1.990172         1.267469
 O        -2.333379         2.045445         0.036457
 C        -1.017209         1.819390         0.706138
 C        -0.790809         1.683157         2.999683
 C         0.389578         0.927317         2.381410
 H         0.141708        -0.673281        -0.517792
 H        -2.351387        -0.397587         0.750200
 H        -1.381857        -0.775162         2.334527
 H        -3.900842         1.210996         1.066332
 H        -3.449201         2.919151         1.626676
 H        -0.428197         2.702676         0.542261
 H        -0.502916         2.718821         3.184128
 H        -0.990406         1.211246         3.951434
 H         1.296021         1.568341         2.195124
 H         0.626901        -0.006788         2.911700
