19
Iteration:  3819charge 0 multiplicity 1
 O         0.537834        -0.268994         0.082935
 C        -0.254359         0.522690         0.981465
 C        -1.598732        -0.061194         1.456278
 C        -1.903361         1.393813         1.904560
 C        -3.002629         2.126901         1.235841
 O        -2.287604         2.110935        -0.034846
 C        -1.006290         1.867043         0.780000
 C        -0.933482         1.660586         3.173111
 C         0.391767         0.876951         2.427107
 H         0.544210         0.133487        -0.821518
 H        -2.280842        -0.417899         0.677603
 H        -1.462968        -0.844992         2.145198
 H        -3.918857         1.714851         1.332763
 H        -2.928024         3.178168         1.669321
 H        -0.509510         2.942740         0.858334
 H        -0.825142         2.715159         3.319111
 H        -1.178289         1.221228         4.182589
 H         1.106770         1.682723         2.371184
 H         0.967703        -0.051643         2.905534
