19
Iteration:  4062
 O         0.610278        -0.179098         0.115014
 C        -0.325013         0.490859         0.965703
 C        -1.716962        -0.070111         1.384251
 C        -1.828368         1.383675         1.903921
 C        -2.995118         2.162292         1.276880
 O        -2.250768         2.130895         0.019758
 C        -1.016896         1.920541         0.697237
 C        -0.908559         1.491410         3.132183
 C         0.329175         0.911182         2.379283
 H         1.275402        -0.547244         0.752063
 H        -2.415368        -0.208272         0.542329
 H        -1.785702        -0.843928         2.147624
 H        -3.957092         1.762738         1.380402
 H        -3.047573         3.276467         1.665178
 H        -0.475548         2.880442         0.867821
 H        -0.694196         2.614907         3.245752
 H        -1.242953         1.028753         4.073614
 H         1.118845         1.722690         2.354246
 H         0.847469        -0.001339         2.843629
