19
Iteration:  4048charge 0 multiplicity 1
 O         0.695141        -0.099884         0.108182
 C        -0.252919         0.509776         0.947376
 C        -1.767876        -0.128579         1.506290
 C        -1.951232         1.345643         1.957579
 C        -2.994337         2.255146         1.274539
 O        -2.262988         2.169441        -0.010859
 C        -1.045955         1.842582         0.786160
 C        -0.917312         1.566321         3.050188
 C         0.355951         0.819327         2.306668
 H         1.335322        -0.575179         0.616979
 H        -2.370671        -0.527057         0.721778
 H        -1.737799        -0.840234         2.339984
 H        -4.032304         1.936933         0.946052
 H        -3.006720         3.228273         1.642307
 H        -0.413352         2.651303         0.776370
 H        -0.826046         2.586082         3.361044
 H        -1.141092         0.979470         3.987048
 H         1.462750         1.429775         2.147974
 H         0.533993        -0.104488         2.862973
