19
Iteration:    34charge 0 multiplicity 1
 O         0.554407        -0.205117         0.115947
 C        -0.260362         0.551563         1.029819
 C        -1.494162        -0.087088         1.681300
 C        -1.850823         1.453707         2.010548
 C        -3.117057         1.937257         1.243398
 O        -2.456407         1.863588        -0.101212
 C        -1.159262         1.849357         0.655329
 C        -0.768990         1.696808         3.120344
 C         0.462672         1.193488         2.215535
 H         1.518389         0.074985         0.211277
 H        -2.163892        -0.743632         1.106813
 H        -1.252795        -0.549083         2.631247
 H        -4.057320         1.376428         1.332076
 H        -3.252801         2.980415         1.527931
 H        -0.713511         2.811038         0.630212
 H        -0.703856         2.744974         3.297577
 H        -0.967276         1.174811         4.048998
 H         0.768876         2.112558         1.734307
 H         1.336414         0.721484         2.674028
