19
Iteration:  2385charge 0 multiplicity 1
 O         0.724300        -0.127366         0.210641
 C        -0.299183         0.524282         0.922165
 C        -1.648307        -0.054734         1.580356
 C        -1.842230         1.435413         2.018205
 C        -3.011490         2.231848         1.259768
 O        -2.439154         1.901096         0.008050
 C        -1.097728         1.834526         0.581503
 C        -0.817153         1.524489         3.129021
 C         0.389930         1.047656         2.248614
 H         0.322608        -0.601648        -0.606597
 H        -2.478838        -0.346781         0.917054
 H        -1.522683        -0.866915         2.334044
 H        -3.993281         1.660864         1.457698
 H        -2.913659         3.257208         1.501496
 H        -0.667766         2.742154         0.501017
 H        -0.664860         2.493555         3.606715
 H        -0.974102         0.973952         4.060639
 H         1.050402         2.008708         2.043510
 H         1.030280         0.168350         2.722955
