19
Iteration:  4531charge 0 multiplicity 1
 O         0.521481        -0.002359         0.103239
 C        -0.319040         0.491767         1.051059
 C        -1.655598        -0.001097         1.445019
 C        -1.878530         1.383228         1.963212
 C        -2.976156         2.242217         1.230616
 O        -2.283913         2.027358        -0.062799
 C        -1.043351         1.868767         0.681810
 C        -0.755174         1.506129         3.169963
 C         0.323212         0.767327         2.412281
 H         0.871216        -0.822458         0.489008
 H        -2.236603        -0.104777         0.491637
 H        -1.811364        -0.947469         2.042900
 H        -4.036343         1.904769         1.009675
 H        -2.956599         3.351000         1.551170
 H        -0.529896         2.780943         0.562762
 H        -0.327706         2.601575         3.356619
 H        -1.197752         0.995366         4.071753
 H         1.290103         1.384591         2.320967
 H         0.621805        -0.244813         2.917515
