19
Iteration:  4940
 O         0.662475        -0.169979         0.244431
 C        -0.328312         0.487890         0.940940
 C        -1.655764        -0.081799         1.464135
 C        -1.779929         1.472829         1.896804
 C        -2.941341         2.251160         1.367601
 O        -2.344675         2.116877        -0.002800
 C        -0.960236         1.800497         0.570624
 C        -0.958747         1.505989         3.152254
 C         0.276460         0.867072         2.349425
 H         0.660131        -0.033046        -0.703324
 H        -2.383301        -0.113365         0.589569
 H        -1.770225        -0.850067         2.253616
 H        -4.009424         1.803239         1.398539
 H        -3.055158         3.354943         1.483693
 H        -0.269799         2.761061         0.554431
 H        -0.650982         2.420448         3.677482
 H        -1.291592         0.710249         3.900915
 H         1.075006         1.625884         2.241868
 H         0.623809        -0.080676         2.751953
