19
Iteration:   179
 O         0.580301        -0.244436         0.164780
 C        -0.295111         0.529880         0.984526
 C        -1.524337        -0.037933         1.619547
 C        -1.821447         1.424763         1.958530
 C        -3.085224         1.924571         1.368296
 O        -2.470581         1.922989        -0.114617
 C        -1.092104         1.872543         0.615396
 C        -0.794297         1.774999         3.091593
 C         0.456777         1.128966         2.277521
 H         1.230758         0.357219        -0.160534
 H        -2.254113        -0.494645         0.934545
 H        -1.480928        -0.859980         2.394420
 H        -3.998262         1.258186         1.441283
 H        -3.484882         2.893771         1.628519
 H        -0.594511         2.796229         0.610703
 H        -0.765745         2.794178         3.408754
 H        -0.929520         1.238149         4.097055
 H         1.225723         1.884698         2.064603
 H         0.993519         0.246947         2.699699
