19
Iteration:  3363charge 0 multiplicity 1
 O         0.603891        -0.271872         0.212046
 C        -0.282685         0.584409         0.895210
 C        -1.595103        -0.020222         1.518549
 C        -1.805645         1.458999         2.004912
 C        -3.062740         2.046742         1.257827
 O        -2.369798         1.992674        -0.037587
 C        -1.062586         1.925495         0.652553
 C        -0.851426         1.547214         3.168467
 C         0.412522         1.070236         2.317225
 H         0.067594        -0.399880        -0.610746
 H        -2.330661        -0.427893         0.805079
 H        -1.288785        -0.789026         2.284287
 H        -4.053768         1.472285         1.369068
 H        -3.100094         3.103611         1.542738
 H        -0.449501         2.865540         0.491163
 H        -0.767183         2.494530         3.583272
 H        -1.127835         0.882267         4.025061
 H         1.083026         1.938972         2.072124
 H         1.030316         0.362288         2.783543
