19
Iteration:  1506
 O         0.661915        -0.143100         0.171000
 C        -0.231726         0.501567         0.983143
 C        -1.599046        -0.117881         1.492491
 C        -1.743079         1.439145         1.925666
 C        -2.992664         2.061536         1.377433
 O        -2.478920         1.952716        -0.015851
 C        -1.035837         1.842067         0.639771
 C        -0.861139         1.774125         3.019945
 C         0.327327         0.961983         2.370399
 H         0.162408        -0.689346        -0.433629
 H        -2.290574        -0.397066         0.643744
 H        -1.647295        -0.859793         2.347659
 H        -3.896054         1.525286         1.500082
 H        -2.922610         3.119846         1.553290
 H        -0.693641         2.933288         0.642134
 H        -0.746459         2.949816         2.981311
 H        -1.130043         1.558049         4.102535
 H         1.159623         1.671379         2.294884
 H         0.550200         0.072822         3.090333
