19
Iteration:  3129
 O         0.481657        -0.112138        -0.001195
 C        -0.268304         0.567044         0.978341
 C        -1.517770        -0.034767         1.593345
 C        -1.842166         1.397424         1.998085
 C        -2.959630         2.170097         1.239915
 O        -2.292363         1.844414        -0.021133
 C        -1.042679         1.835592         0.655632
 C        -0.914169         1.620426         3.172364
 C         0.356108         1.029722         2.407817
 H        -0.216655        -0.686380        -0.303317
 H        -2.006585        -0.608782         0.822258
 H        -1.230231        -0.751948         2.393543
 H        -4.098540         1.801245         1.340159
 H        -2.890985         3.307744         1.343419
 H        -0.559068         2.952966         0.592713
 H        -0.761789         2.626342         3.482929
 H        -1.099997         1.002197         4.012812
 H         1.110627         1.830396         2.233955
 H         0.823754         0.172515         2.801092
