19
Iteration:  1909
 O         0.623780        -0.114302         0.151557
 C        -0.258438         0.517658         1.022025
 C        -1.587301        -0.047304         1.559191
 C        -1.797495         1.430311         1.931673
 C        -2.990950         2.151472         1.336862
 O        -2.374802         1.842925        -0.022187
 C        -1.119858         1.833354         0.655205
 C        -0.918883         1.592969         3.102800
 C         0.425900         1.121082         2.273879
 H         0.053034        -0.735173        -0.442958
 H        -2.412199        -0.370680         0.840079
 H        -1.377859        -0.988162         2.158716
 H        -4.072644         1.577410         1.524690
 H        -3.042309         3.288591         1.588335
 H        -0.484267         2.778927         0.472508
 H        -0.744314         2.601635         3.472590
 H        -1.015199         1.033157         4.034820
 H         0.960501         1.913885         1.789893
 H         0.954482         0.437831         2.825566
