19
Iteration:  4888
 O         0.535747        -0.217551         0.104211
 C        -0.321034         0.510777         1.044155
 C        -1.612048        -0.100848         1.443297
 C        -1.884389         1.418195         1.985070
 C        -3.047266         2.204391         1.190194
 O        -2.223625         2.148695        -0.058459
 C        -1.031683         1.890417         0.781431
 C        -0.872079         1.551620         3.117397
 C         0.420319         0.882321         2.411362
 H         0.035206        -0.321382        -0.722036
 H        -2.260330        -0.567065         0.692988
 H        -1.449263        -0.795834         2.207728
 H        -3.983255         1.751565         0.885879
 H        -3.196262         3.206517         1.468517
 H        -0.454006         2.794384         0.886359
 H        -0.533188         2.541624         3.564085
 H        -1.085115         1.067495         4.128587
 H         1.242338         1.555972         2.406303
 H         0.706177        -0.018891         2.985518
