19
Iteration:  4537
 O         0.544061         0.012194         0.052516
 C        -0.306396         0.517248         0.987242
 C        -1.681455        -0.023423         1.490684
 C        -1.860966         1.371154         1.943688
 C        -2.954801         2.293097         1.223433
 O        -2.273588         1.998377        -0.076582
 C        -1.075321         1.842213         0.718912
 C        -0.802883         1.508131         3.205501
 C         0.320284         0.765358         2.422799
 H         0.902735        -0.840792         0.474548
 H        -2.308714        -0.181009         0.638097
 H        -1.675408        -0.890088         2.191934
 H        -3.967130         1.968752         1.151744
 H        -2.808068         3.319748         1.473353
 H        -0.443541         2.819241         0.753672
 H        -0.510135         2.521017         3.263637
 H        -1.098546         1.093621         4.168596
 H         1.240746         1.289742         2.320878
 H         0.510642        -0.156467         2.945105
