19
Iteration:  4619charge 0 multiplicity 1
 O         0.583837        -0.305433         0.130268
 C        -0.278824         0.587822         0.898478
 C        -1.650947         0.060552         1.396244
 C        -1.852749         1.502460         1.968953
 C        -3.059729         2.105164         1.250242
 O        -2.217509         2.188581         0.038417
 C        -0.977518         1.955654         0.786637
 C        -0.952314         1.437951         3.153089
 C         0.336724         0.885458         2.281660
 H         0.562813        -1.245415         0.433651
 H        -2.310519        -0.289000         0.533039
 H        -1.496895        -0.722567         2.231090
 H        -3.814465         1.291921         1.168588
 H        -3.572733         3.042705         1.547384
 H        -0.237134         2.664082         0.689531
 H        -0.430502         2.428395         3.532264
 H        -1.428272         1.009380         4.096213
 H         1.109817         1.741745         2.371954
 H         0.818540        -0.068311         2.780151
