19
Iteration:  4842charge 0 multiplicity 1
 O         0.523478        -0.083858        -0.052524
 C        -0.321462         0.489419         0.990960
 C        -1.708783        -0.113698         1.488520
 C        -1.802722         1.444109         1.971100
 C        -3.063055         2.176442         1.109054
 O        -2.193703         2.092570        -0.010953
 C        -0.963635         1.842697         0.789514
 C        -0.825575         1.601872         3.235677
 C         0.341089         0.845538         2.490226
 H         0.410910        -1.022744        -0.043988
 H        -2.367578        -0.299877         0.644257
 H        -1.768999        -0.839203         2.204833
 H        -3.993175         1.575650         1.072422
 H        -3.257121         3.146756         1.367541
 H        -0.366449         2.773418         0.722237
 H        -0.660871         2.631191         3.578713
 H        -1.198729         1.248099         4.247994
 H         1.096138         1.593124         2.260190
 H         0.799851         0.016742         2.966416
