19
Iteration:  3886
 O         0.566346        -0.121112         0.043835
 C        -0.287727         0.568135         0.964168
 C        -1.692541         0.016320         1.436051
 C        -1.831723         1.508109         1.952344
 C        -3.032451         2.170962         1.250030
 O        -2.307571         1.979949         0.017578
 C        -0.964282         1.864600         0.679574
 C        -0.853763         1.513274         3.141957
 C         0.327035         0.842552         2.434996
 H         1.333960        -0.470425         0.512563
 H        -2.374341        -0.418293         0.709866
 H        -1.573140        -0.727115         2.238712
 H        -3.972876         1.705406         1.217358
 H        -3.211062         3.294113         1.374414
 H        -0.279543         2.862080         0.580413
 H        -0.535530         2.450551         3.640095
 H        -1.326963         0.913663         3.956933
 H         1.230728         1.455677         2.458187
 H         0.426193        -0.217796         2.922658
