19
Iteration:  2383charge 0 multiplicity 1
 O         0.724067        -0.139836         0.219643
 C        -0.271782         0.549354         0.932639
 C        -1.643519        -0.055817         1.562854
 C        -1.840141         1.453627         2.008974
 C        -3.027383         2.204199         1.269892
 O        -2.449123         1.905631         0.006164
 C        -1.100949         1.840729         0.588885
 C        -0.812968         1.521938         3.103052
 C         0.389135         1.026994         2.251253
 H         0.277156        -0.610599        -0.554509
 H        -2.522171        -0.397986         0.908449
 H        -1.506719        -0.875703         2.373369
 H        -4.059207         1.738276         1.484340
 H        -2.901819         3.298638         1.535556
 H        -0.580143         2.785068         0.519576
 H        -0.632848         2.521640         3.567396
 H        -0.975043         0.959862         4.080866
 H         1.068034         2.015158         2.063090
 H         0.961720         0.210309         2.710555
