19
Iteration:  2996
 O         0.508888        -0.017851         0.123511
 C        -0.335628         0.621185         1.016132
 C        -1.684676        -0.122714         1.649385
 C        -1.899911         1.348982         2.116426
 C        -2.972227         2.082203         1.187315
 O        -2.260997         1.923117        -0.066181
 C        -1.027823         1.913610         0.642154
 C        -0.794588         1.586087         3.127374
 C         0.458602         0.958707         2.263600
 H         0.006479        -0.686300        -0.279817
 H        -2.382130        -0.506034         0.896641
 H        -1.554434        -0.760628         2.559783
 H        -3.975688         1.454998         0.927935
 H        -3.208185         3.180054         1.379200
 H        -0.434696         2.949876         0.429640
 H        -0.655736         2.633096         3.366254
 H        -0.871702         1.111699         4.058734
 H         1.160030         1.702027         1.886166
 H         0.862496         0.174737         2.744323
