19
Iteration:    84charge 0 multiplicity 1
 O         0.702600        -0.149745         0.203407
 C        -0.264854         0.625882         0.963962
 C        -1.459453        -0.050868         1.640886
 C        -1.792037         1.417401         1.962151
 C        -3.073307         1.954772         1.295885
 O        -2.545098         1.796150        -0.035164
 C        -1.191206         1.879047         0.620133
 C        -0.772016         1.791684         2.998554
 C         0.391637         1.036364         2.350071
 H         0.349901        -0.218029        -0.712088
 H        -2.135106        -0.401026         0.889984
 H        -1.425105        -0.843845         2.421913
 H        -3.961741         1.353589         1.503809
 H        -3.330582         2.991868         1.668379
 H        -0.707369         2.949190         0.610878
 H        -0.464653         2.917559         2.887752
 H        -1.029314         1.550836         4.061917
 H         1.217998         1.749967         2.073260
 H         0.734951         0.140080         2.837092
