19
Iteration:   443charge 0 multiplicity 1
 O         0.564037        -0.134324         0.017896
 C        -0.239946         0.560562         0.971294
 C        -1.556679        -0.118306         1.557284
 C        -1.771736         1.483525         1.996354
 C        -3.126727         2.018788         1.341315
 O        -2.350686         1.910422        -0.023634
 C        -1.115355         1.852294         0.691150
 C        -0.850430         1.780043         3.074647
 C         0.394017         0.971344         2.343082
 H         1.302382        -0.652009         0.413701
 H        -2.411423        -0.384583         0.865352
 H        -1.420763        -0.882747         2.305825
 H        -4.001107         1.349909         1.245634
 H        -3.269370         3.079824         1.427454
 H        -0.490754         2.890722         0.713936
 H        -0.814558         2.893805         3.113141
 H        -1.062160         1.389644         4.119606
 H         1.314064         1.619407         2.226290
 H         0.474744         0.091033         2.863844
