19
Iteration:  2279charge 0 multiplicity 1
 O         0.552906        -0.127800         0.038921
 C        -0.260162         0.558366         1.020803
 C        -1.598504        -0.072061         1.554286
 C        -1.794423         1.475652         2.013553
 C        -2.981943         2.176977         1.232663
 O        -2.341504         1.745310        -0.010879
 C        -1.100460         1.815176         0.715540
 C        -0.862365         1.622277         3.172320
 C         0.393065         1.110766         2.334850
 H         0.039510        -0.072205        -0.839770
 H        -2.296482        -0.311010         0.793617
 H        -1.495322        -0.841921         2.295116
 H        -3.967570         1.817016         1.510385
 H        -2.935457         3.322380         1.485031
 H        -0.484915         2.759692         0.460319
 H        -0.721842         2.629286         3.581526
 H        -1.300809         0.937646         3.880557
 H         1.072087         1.784971         2.064542
 H         1.003248         0.231301         2.706388
