19
Iteration:  2587charge 0 multiplicity 1
 O         0.513207        -0.095185         0.121774
 C        -0.328746         0.504496         1.051418
 C        -1.524419        -0.101541         1.529931
 C        -1.818581         1.434978         1.934690
 C        -3.076109         1.934317         1.284013
 O        -2.311247         2.055340        -0.077172
 C        -1.082981         1.996128         0.711570
 C        -0.736867         1.765112         3.071102
 C         0.378027         0.870342         2.392911
 H        -0.049017        -0.685628        -0.497823
 H        -2.278794        -0.475649         0.817280
 H        -1.439942        -0.855691         2.318578
 H        -3.947723         1.202173         1.210394
 H        -3.528857         2.823739         1.637551
 H        -0.447997         2.796134         0.573184
 H        -0.502802         2.874484         3.052738
 H        -0.925131         1.484250         4.132934
 H         1.416926         1.236508         2.246870
 H         0.585522        -0.206005         2.997968
