19
Iteration:  1059charge 0 multiplicity 1
 O         0.431643        -0.286279         0.135007
 C        -0.185052         0.580051         0.977196
 C        -1.432244        -0.025463         1.533239
 C        -1.816242         1.374482         1.961508
 C        -3.096039         2.007133         1.404337
 O        -2.394556         1.855503        -0.045583
 C        -1.104317         1.811791         0.681379
 C        -0.849848         1.750851         3.027457
 C         0.392610         1.216665         2.308778
 H         1.421905        -0.077661         0.129112
 H        -2.099139        -0.223220         0.748244
 H        -1.560902        -0.714624         2.349559
 H        -4.077159         1.462041         1.390380
 H        -3.194761         3.035270         1.777353
 H        -0.396355         2.727914         0.489201
 H        -0.687879         2.789994         3.285304
 H        -0.995004         1.099894         3.997271
 H         0.950610         2.107189         1.795985
 H         0.963699         0.478938         2.789813
