19
Iteration:  3553charge 0 multiplicity 1
 O         0.551008        -0.045707         0.040641
 C        -0.249395         0.571525         0.940329
 C        -1.541347        -0.086901         1.464568
 C        -1.818337         1.490727         1.975488
 C        -3.055141         2.098798         1.241325
 O        -2.311736         1.896971         0.027214
 C        -1.045927         1.883262         0.730582
 C        -0.835428         1.692237         3.103537
 C         0.357507         0.839012         2.406542
 H         0.100805        -0.904553        -0.047360
 H        -2.243119        -0.389129         0.666854
 H        -1.635143        -0.799380         2.259533
 H        -3.971414         1.610463         1.226462
 H        -3.181151         3.204946         1.430456
 H        -0.563998         2.945795         0.919869
 H        -0.599473         2.794884         3.342683
 H        -1.271420         1.305114         3.992136
 H         1.372160         1.302954         2.671501
 H         0.263507        -0.159130         3.008094
