19
Iteration:  2862charge 0 multiplicity 1
 O         0.513147        -0.165131         0.047201
 C        -0.296071         0.657179         0.959092
 C        -1.592920        -0.032743         1.502464
 C        -1.822619         1.494903         1.998344
 C        -3.005861         2.037356         1.213692
 O        -2.302653         1.881554        -0.021095
 C        -1.061608         1.890902         0.760076
 C        -0.827750         1.641430         3.137155
 C         0.413968         0.977081         2.436588
 H        -0.156136        -0.777490        -0.302369
 H        -2.271509        -0.364658         0.710756
 H        -1.364980        -0.882149         2.119388
 H        -3.981892         1.349208         1.179703
 H        -3.342956         3.117111         1.464800
 H        -0.613311         2.962098         0.568963
 H        -0.468220         2.661591         3.320722
 H        -1.077837         1.240814         4.121216
 H         1.223047         1.626998         2.414340
 H         0.838466         0.004338         2.807112
