19
Iteration:  3915
 O         0.629420        -0.242864         0.164243
 C        -0.266459         0.542833         1.023982
 C        -1.654085        -0.061239         1.353635
 C        -1.902565         1.351892         1.964218
 C        -2.948954         2.181384         1.345731
 O        -2.319778         2.116165        -0.016311
 C        -1.091201         1.854517         0.678056
 C        -0.849992         1.615915         3.092001
 C         0.293389         0.864837         2.385629
 H         1.216163         0.380488        -0.250658
 H        -2.207332        -0.258558         0.414364
 H        -1.669036        -0.956865         1.948648
 H        -4.064318         1.829588         1.248082
 H        -2.753758         3.243186         1.563846
 H        -0.487584         2.704192         0.888671
 H        -0.551722         2.611727         3.313655
 H        -1.255124         1.176178         4.041940
 H         1.214696         1.482694         2.361068
 H         0.473907         0.000159         2.897365
