19
Iteration:  4421
 O         0.548459         0.002834         0.004136
 C        -0.302159         0.522131         0.979846
 C        -1.690469        -0.046482         1.413281
 C        -1.756264         1.585531         1.966919
 C        -2.990273         2.171641         1.283640
 O        -2.235698         1.929366        -0.016983
 C        -0.976604         1.893026         0.696649
 C        -0.875750         1.551392         3.158790
 C         0.225546         0.745912         2.480919
 H         0.853579        -0.875769         0.375370
 H        -2.344937        -0.258522         0.578693
 H        -1.653256        -0.810382         2.256756
 H        -3.885133         1.587844         1.444684
 H        -2.949559         3.269495         1.385703
 H        -0.456972         2.855553         0.381676
 H        -0.385164         2.543257         3.476751
 H        -1.471136         0.978407         3.887749
 H         1.210388         1.306006         2.439085
 H         0.306373        -0.188052         3.122592
