19
Iteration:  1819charge 0 multiplicity 1
 O         0.541732        -0.179436         0.106696
 C        -0.264165         0.600864         1.013074
 C        -1.567656        -0.047163         1.562029
 C        -1.818211         1.501366         1.964817
 C        -3.058606         1.999067         1.221270
 O        -2.322905         1.883901        -0.053240
 C        -1.081562         1.872005         0.762058
 C        -0.816828         1.601205         3.140953
 C         0.431464         1.101097         2.310868
 H        -0.155011        -0.722648        -0.383398
 H        -2.317333        -0.413138         0.864318
 H        -1.359926        -0.768049         2.373812
 H        -4.132122         1.576256         1.124661
 H        -3.290834         3.058259         1.459800
 H        -0.622750         2.918008         0.662466
 H        -0.642651         2.661121         3.417022
 H        -1.008674         1.022222         4.073887
 H         1.078011         1.938810         2.011128
 H         0.897588         0.305659         2.752170
