19
Iteration:  1408charge 0 multiplicity 1
 O         0.437734        -0.241111         0.082538
 C        -0.280786         0.548418         0.971107
 C        -1.487041        -0.075615         1.610979
 C        -1.829841         1.421346         1.915401
 C        -3.086920         2.055778         1.273441
 O        -2.279505         1.889431        -0.018538
 C        -1.091392         1.892019         0.734824
 C        -0.852369         1.749299         3.094166
 C         0.405408         1.055652         2.360377
 H         1.006928         0.374269        -0.434191
 H        -2.131817        -0.471705         0.792393
 H        -1.225122        -0.819510         2.376210
 H        -4.015443         1.356149         1.389368
 H        -3.200283         3.151443         1.275864
 H        -0.499095         2.839590         0.553990
 H        -0.768544         2.836265         3.301727
 H        -1.148280         1.112560         3.949222
 H         1.240573         1.779369         2.210325
 H         0.713800         0.089372         2.949643
