19
Iteration:   892
 O         0.546016        -0.231199         0.103579
 C        -0.243601         0.580957         0.987146
 C        -1.522574        -0.052278         1.618968
 C        -1.848958         1.363291         1.944688
 C        -3.042347         2.001414         1.367970
 O        -2.473769         1.912187        -0.002227
 C        -1.079274         1.843750         0.647627
 C        -0.841721         1.747863         2.987544
 C         0.456357         1.085150         2.278053
 H         1.453971        -0.252258         0.590835
 H        -2.113359        -0.398822         0.727938
 H        -1.374608        -0.823259         2.274815
 H        -4.035242         1.545507         1.568761
 H        -3.164906         3.040477         1.623379
 H        -0.826857         2.957752         0.631252
 H        -0.597974         2.864754         2.935536
 H        -1.078396         1.601800         4.055791
 H         1.165146         1.912139         2.148959
 H         0.708368         0.195722         2.743188
