19
Iteration:  1977
 O         0.647417        -0.084289         0.144544
 C        -0.332930         0.497152         0.980861
 C        -1.633693        -0.105025         1.580652
 C        -1.825837         1.423748         2.025606
 C        -3.079966         2.008133         1.260963
 O        -2.346254         1.967940         0.013519
 C        -1.061348         1.817332         0.692519
 C        -0.721627         1.754127         3.035685
 C         0.383606         0.986631         2.294724
 H         0.283884        -0.119134        -0.778174
 H        -2.547864        -0.431198         1.035534
 H        -1.447947        -0.877181         2.414509
 H        -3.993207         1.207051         1.150134
 H        -3.477320         3.054798         1.326802
 H        -0.559445         2.768266         0.530137
 H        -0.757726         2.834279         3.125718
 H        -1.045861         1.483122         4.011282
 H         1.201190         1.647414         2.168564
 H         0.630360         0.100260         2.950880
