19
Iteration:  3798charge 0 multiplicity 1
 O         0.582917        -0.207502         0.166607
 C        -0.296892         0.452283         0.978851
 C        -1.670789        -0.029406         1.462394
 C        -1.809613         1.480942         1.935751
 C        -3.049451         2.129336         1.335950
 O        -2.301475         2.093766         0.023070
 C        -0.985739         1.829851         0.637988
 C        -0.841119         1.574267         3.088269
 C         0.291061         0.950634         2.338586
 H         1.252107         0.419099        -0.100058
 H        -2.308995        -0.258398         0.594553
 H        -1.664667        -0.873912         2.140357
 H        -3.877770         1.550681         1.244097
 H        -3.213202         3.184000         1.629728
 H        -0.425820         2.756490         0.441301
 H        -0.623039         2.572070         3.436884
 H        -1.276612         0.980001         3.938675
 H         1.304554         1.422093         2.382377
 H         0.513862        -0.195152         2.836466
