19
Iteration:  3986charge 0 multiplicity 1
 O         0.467400        -0.124109        -0.004261
 C        -0.225788         0.576555         1.031034
 C        -1.604477        -0.009998         1.362185
 C        -1.838887         1.561012         1.981615
 C        -3.059317         2.149445         1.156356
 O        -2.175509         1.971537        -0.025383
 C        -1.004134         1.946096         0.816222
 C        -0.929690         1.466064         3.241216
 C         0.348562         0.830652         2.449667
 H         0.343251        -1.021849         0.299178
 H        -2.252794        -0.235189         0.503220
 H        -1.632780        -0.826293         2.131771
 H        -3.868533         1.510742         1.015520
 H        -3.206084         3.301887         1.477939
 H        -0.478139         3.033336         0.618277
 H        -0.608431         2.493228         3.664433
 H        -1.263607         0.827851         4.051274
 H         1.019270         1.612159         2.316838
 H         0.880769        -0.094385         2.843083
