19
Iteration:  3846
 O         0.468882        -0.084785         0.066362
 C        -0.320983         0.541066         1.027679
 C        -1.651185        -0.093964         1.508102
 C        -1.884124         1.424851         1.933917
 C        -2.993002         2.158001         1.168245
 O        -2.138298         2.026084         0.007044
 C        -0.979500         1.879055         0.765811
 C        -0.852095         1.531483         3.119857
 C         0.336938         0.947505         2.405038
 H        -0.117439        -0.716865        -0.436055
 H        -2.331872        -0.407659         0.687435
 H        -1.596534        -0.924208         2.327303
 H        -3.925857         1.443810         1.140459
 H        -3.089547         3.177905         1.439915
 H        -0.452826         2.749952         0.708593
 H        -0.869283         2.602099         3.502035
 H        -0.995801         0.871764         3.965385
 H         1.178705         1.777517         2.284932
 H         0.879301         0.108006         2.972319
