19
Iteration:  4255
 O         0.534359        -0.095834        -0.023108
 C        -0.322686         0.531253         0.958973
 C        -1.660316        -0.099390         1.544349
 C        -1.900327         1.323484         1.900048
 C        -2.912317         2.157347         1.242009
 O        -2.188543         2.165218        -0.047077
 C        -1.008282         1.857219         0.819653
 C        -0.911455         1.561844         3.113221
 C         0.318584         0.900429         2.438799
 H         0.653224        -1.019060         0.371292
 H        -2.365063        -0.469508         0.757906
 H        -1.588971        -0.851212         2.330998
 H        -3.981739         1.862204         1.137963
 H        -2.858779         3.197220         1.731233
 H        -0.282337         2.853408         0.870230
 H        -0.896957         2.615304         3.320401
 H        -1.348503         1.117553         4.037411
 H         1.283143         1.245825         2.378388
 H         0.452791        -0.045895         2.882378
