19
Iteration:  1470
 O         0.691671        -0.109968         0.164432
 C        -0.259885         0.536596         0.966472
 C        -1.688819        -0.059131         1.631325
 C        -1.804598         1.385924         2.006513
 C        -3.032231         2.096037         1.246188
 O        -2.388106         1.935108        -0.045237
 C        -1.124201         1.839593         0.675710
 C        -0.787414         1.655649         3.088781
 C         0.362698         1.020522         2.274756
 H         0.333383        -0.832555        -0.390661
 H        -2.323849        -0.463243         0.770123
 H        -1.616930        -0.824644         2.460484
 H        -4.023487         1.804423         1.296454
 H        -3.191005         3.203431         1.396379
 H        -0.501621         2.752188         0.695889
 H        -0.715353         2.831813         3.196276
 H        -1.009999         1.170095         4.051329
 H         1.125937         1.720748         2.173005
 H         0.917452         0.124897         2.679808
