19
Iteration:  2062charge 0 multiplicity 1
 O         0.578493        -0.204576         0.198229
 C        -0.301308         0.489840         0.998199
 C        -1.661456        -0.019865         1.560122
 C        -1.786728         1.434297         1.955704
 C        -3.119539         1.960288         1.299870
 O        -2.352304         2.009900         0.002440
 C        -1.034895         1.903114         0.637690
 C        -0.776696         1.598759         3.120762
 C         0.461502         1.155906         2.252545
 H         0.074320        -0.623150        -0.454641
 H        -2.311098        -0.476385         0.798323
 H        -1.555935        -0.596804         2.504374
 H        -3.829703         1.275872         0.919919
 H        -3.550112         2.958264         1.428920
 H        -0.349947         2.868698         0.632634
 H        -0.819455         2.624642         3.454636
 H        -1.149392         0.922743         3.938387
 H         1.282914         1.907524         1.949484
 H         1.056876         0.378469         2.636609
