19
Iteration:   370charge 0 multiplicity 1
 O         0.659463        -0.112056         0.238048
 C        -0.364845         0.582890         0.983389
 C        -1.637708        -0.031250         1.647827
 C        -1.855178         1.414978         1.982882
 C        -3.064164         2.077177         1.240703
 O        -2.364624         1.853191        -0.040940
 C        -1.105870         1.836349         0.595063
 C        -0.763078         1.597894         3.157242
 C         0.433856         1.102393         2.236258
 H         0.378167        -0.055873        -0.741650
 H        -2.339124        -0.539845         0.913518
 H        -1.420116        -0.802797         2.386513
 H        -3.906522         1.416573         1.246459
 H        -3.231386         3.142989         1.495142
 H        -0.603178         2.708632         0.400839
 H        -0.567963         2.621569         3.585551
 H        -0.988230         0.965958         3.965539
 H         1.100067         1.939612         1.887584
 H         0.979861         0.169704         2.505547
