19
Iteration:  3880
 O         0.575922        -0.094158         0.013468
 C        -0.273983         0.516129         0.951153
 C        -1.715047         0.048671         1.504620
 C        -1.830503         1.521749         2.014272
 C        -3.020487         2.153684         1.225573
 O        -2.252655         1.991203        -0.011703
 C        -0.982376         1.867143         0.662929
 C        -0.864749         1.523822         3.183484
 C         0.290307         0.841733         2.429492
 H         1.185562        -0.678709         0.473869
 H        -2.255469        -0.293602         0.595412
 H        -1.652625        -0.785443         2.250071
 H        -4.050787         1.611207         1.335703
 H        -3.280934         3.185127         1.341225
 H        -0.517209         2.750674         0.466810
 H        -0.622182         2.460970         3.716672
 H        -1.225110         0.778232         3.891259
 H         1.247571         1.493174         2.387911
 H         0.596380        -0.148940         2.759690
