19
Iteration:  3293
 O         0.557513        -0.072601         0.113088
 C        -0.257166         0.576928         1.047018
 C        -1.558200        -0.040664         1.480957
 C        -1.819072         1.389865         1.979858
 C        -3.020821         2.147465         1.339189
 O        -2.342760         1.841835        -0.037043
 C        -1.067618         1.879637         0.654584
 C        -0.861476         1.701481         3.040175
 C         0.368232         0.902235         2.401506
 H         0.039240        -0.596112        -0.512635
 H        -2.357641        -0.228038         0.728203
 H        -1.396724        -0.799110         2.252241
 H        -4.011219         1.591617         1.242912
 H        -3.084729         3.156982         1.622395
 H        -0.555734         2.772149         0.615249
 H        -0.547411         2.811015         3.190302
 H        -1.143746         1.272986         4.020972
 H         1.367603         1.578202         2.355629
 H         0.684597        -0.159344         2.860755
