19
Iteration:   959
 O         0.460390        -0.132067        -0.009443
 C        -0.225744         0.601554         0.935141
 C        -1.502434        -0.077420         1.619977
 C        -1.844658         1.449470         1.981016
 C        -3.092027         2.066195         1.243295
 O        -2.407473         1.730471         0.030547
 C        -1.040977         1.819133         0.686053
 C        -0.852325         1.759507         3.122712
 C         0.465409         1.134266         2.337775
 H         0.699571        -0.981676         0.295203
 H        -2.098507        -0.616529         0.896458
 H        -1.237386        -0.792366         2.356153
 H        -4.139039         1.754598         1.387900
 H        -3.176802         3.143605         1.351826
 H        -0.342773         2.731442         0.587567
 H        -0.778207         2.846534         3.388298
 H        -0.975876         1.238888         4.135966
 H         1.179550         2.000009         2.084891
 H         0.962552         0.454813         2.970220
