19
Iteration:  3738charge 0 multiplicity 1
 O         0.458687        -0.092919         0.020245
 C        -0.294763         0.498337         1.011728
 C        -1.606177        -0.099918         1.498269
 C        -1.837642         1.409161         1.958483
 C        -2.912272         2.155720         1.250473
 O        -2.251126         2.011118        -0.025740
 C        -0.993057         1.846198         0.700341
 C        -0.930246         1.582152         3.164058
 C         0.367244         0.978952         2.418945
 H         0.249605        -1.037781        -0.025613
 H        -2.296849        -0.343229         0.698245
 H        -1.396716        -0.918241         2.228915
 H        -3.955058         1.602056         1.272436
 H        -3.064177         3.179983         1.644400
 H        -0.358726         2.903001         0.525309
 H        -0.808704         2.703745         3.273351
 H        -1.291287         1.144812         4.097328
 H         1.059142         1.845410         2.325764
 H         0.861455         0.176519         2.927028
