19
Iteration:  4175charge 0 multiplicity 1
 O         0.626626        -0.139215         0.174487
 C        -0.276540         0.529676         0.926369
 C        -1.635492        -0.048175         1.402726
 C        -1.893098         1.431901         1.941996
 C        -2.990101         2.237563         1.257813
 O        -2.267837         2.076091         0.039053
 C        -1.001012         1.876004         0.668567
 C        -0.896341         1.541673         3.128601
 C         0.309817         0.805169         2.459118
 H         0.228421        -0.518993        -0.674292
 H        -2.417222        -0.260739         0.675624
 H        -1.486666        -0.894818         2.138766
 H        -3.936825         1.773069         1.173496
 H        -3.120869         3.335765         1.510127
 H        -0.340674         2.797372         0.461278
 H        -0.616744         2.587935         3.405840
 H        -1.215601         0.979128         4.043887
 H         1.194741         1.372475         2.473742
 H         0.405098        -0.249619         2.868920
