19
Iteration:  4391charge 0 multiplicity 1
 O         0.553699        -0.127235         0.054557
 C        -0.220099         0.569628         0.975581
 C        -1.661241        -0.012959         1.457264
 C        -1.857950         1.491415         1.994978
 C        -3.077999         2.126559         1.174457
 O        -2.308947         2.126690        -0.071262
 C        -1.000512         1.878156         0.728335
 C        -0.825182         1.511128         3.166578
 C         0.383639         0.748593         2.478476
 H         0.760375        -0.964500         0.434473
 H        -2.289590        -0.215554         0.599762
 H        -1.714945        -0.848640         2.138380
 H        -4.157058         1.735742         1.179488
 H        -3.225782         3.179994         1.510170
 H        -0.527343         2.971722         0.563536
 H        -0.451725         2.493484         3.490879
 H        -1.307547         1.128720         4.048384
 H         1.323898         1.291672         2.479996
 H         0.622824        -0.114056         3.017335
