19
Iteration:  2142charge 0 multiplicity 1
 O         0.655551        -0.005381         0.135073
 C        -0.327900         0.526993         0.978696
 C        -1.707512        -0.020455         1.591129
 C        -1.869832         1.561661         2.007055
 C        -3.034571         2.142407         1.218814
 O        -2.398045         1.718576        -0.027785
 C        -1.059479         1.838592         0.643587
 C        -0.701087         1.609336         3.204252
 C         0.416754         0.958242         2.302000
 H         0.319144        -0.264587        -0.688627
 H        -2.377301        -0.469244         0.811731
 H        -1.550101        -0.812532         2.402134
 H        -4.129922         1.744504         1.443736
 H        -3.206196         3.258000         1.207838
 H        -0.405162         2.722373         0.132114
 H        -0.364381         2.563267         3.660143
 H        -1.207775         0.997640         3.974572
 H         1.216427         1.724886         2.175748
 H         0.825304         0.112642         2.733946
