19
Iteration:  1247
 O         0.604938        -0.240045         0.086806
 C        -0.244787         0.531978         0.939411
 C        -1.602095        -0.002866         1.547991
 C        -1.796705         1.471708         1.969113
 C        -3.036796         2.014575         1.372779
 O        -2.492972         1.830710        -0.055847
 C        -1.085972         1.858339         0.653095
 C        -0.825763         1.775826         3.064139
 C         0.408596         1.048336         2.438645
 H         1.291413         0.285171        -0.458343
 H        -2.173651        -0.460348         0.722955
 H        -1.409562        -0.708273         2.330010
 H        -3.921662         1.366682         1.300115
 H        -3.223590         3.114493         1.623340
 H        -0.554101         2.819292         0.550681
 H        -0.570619         2.848628         3.104544
 H        -1.004562         1.390683         4.144368
 H         1.345329         1.769798         2.344900
 H         0.458363         0.129161         2.930003
