19
Iteration:   713charge 0 multiplicity 1
 O         0.442366        -0.111239         0.027791
 C        -0.308210         0.580716         0.968809
 C        -1.576984        -0.012154         1.522187
 C        -1.767572         1.502954         1.992886
 C        -3.003687         2.031463         1.305877
 O        -2.420335         1.776659        -0.046869
 C        -1.012943         1.780782         0.593654
 C        -0.835898         1.631634         3.169179
 C         0.400625         1.109581         2.450288
 H         1.368914        -0.223584         0.346854
 H        -2.224772        -0.259166         0.655615
 H        -1.310724        -0.731152         2.332880
 H        -4.017602         1.578572         1.393031
 H        -3.141147         3.145654         1.304666
 H        -0.480313         2.830625         0.407289
 H        -0.548721         2.659496         3.316616
 H        -1.057374         1.166414         4.121955
 H         1.140814         1.839185         2.298106
 H         0.996251         0.231529         2.998818
