19
Iteration:  4563
 O         0.552174         0.035278        -0.120966
 C        -0.317082         0.411112         0.990157
 C        -1.690533        -0.075117         1.553257
 C        -1.865676         1.441653         1.926242
 C        -2.909534         2.307101         1.268978
 O        -2.177447         1.957867         0.079376
 C        -0.932007         1.806489         0.737089
 C        -0.997936         1.575647         3.122268
 C         0.219905         0.823251         2.403538
 H         1.115132        -0.777398         0.107994
 H        -2.398468        -0.415307         0.722528
 H        -1.576432        -0.863233         2.436348
 H        -3.941485         1.914111         1.122374
 H        -2.828872         3.397110         1.608649
 H        -0.225652         2.568102         0.566026
 H        -0.613538         2.666221         3.528378
 H        -1.466185         0.989382         4.024305
 H         1.117146         1.561164         2.234251
 H         0.570962        -0.014672         3.198426
