19
Iteration:   693
 O         0.419317        -0.174699        -0.008454
 C        -0.178507         0.524029         1.017597
 C        -1.519103        -0.114953         1.578733
 C        -1.797758         1.439641         1.957164
 C        -3.027500         1.980033         1.316229
 O        -2.369782         1.906491         0.001358
 C        -1.071622         1.876196         0.642875
 C        -0.929443         1.792427         3.066633
 C         0.422949         1.097458         2.398763
 H         1.326761        -0.391624         0.039403
 H        -1.984063        -0.432517         0.659091
 H        -1.609426        -0.843893         2.383923
 H        -3.988576         1.378525         1.372458
 H        -3.115845         3.047775         1.685465
 H        -0.415804         2.805432         0.511376
 H        -0.876342         2.883465         3.317340
 H        -1.195065         1.141890         3.904265
 H         1.320019         1.662689         2.369257
 H         0.783163         0.291506         3.039573
