19
Iteration:    44
 O         0.581737        -0.266106         0.084837
 C        -0.216220         0.469907         1.001749
 C        -1.551544        -0.043821         1.611499
 C        -1.787424         1.434803         1.949183
 C        -3.049126         1.910113         1.322140
 O        -2.475712         1.836917        -0.015917
 C        -1.125154         1.846489         0.672263
 C        -0.841562         1.744257         3.097909
 C         0.428263         1.273179         2.280792
 H         1.379732         0.289230        -0.106973
 H        -2.296762        -0.258845         0.866168
 H        -1.495166        -0.810430         2.358613
 H        -3.945600         1.314016         1.397515
 H        -3.377493         2.953683         1.463097
 H        -0.725754         2.797259         0.580719
 H        -0.690505         2.832836         3.179543
 H        -1.078121         1.489431         4.070059
 H         0.832966         2.252181         1.984593
 H         1.242740         0.761431         2.788150
