19
Iteration:  4769charge 0 multiplicity 1
 O         0.577760        -0.217704         0.118656
 C        -0.269822         0.391252         1.047611
 C        -1.702907        -0.112683         1.471919
 C        -1.884276         1.394911         1.905066
 C        -3.002070         2.225415         1.292211
 O        -2.236277         2.202264         0.002331
 C        -1.057404         1.856284         0.715635
 C        -0.929741         1.497250         3.060824
 C         0.403329         0.971809         2.349268
 H         1.385228         0.313546        -0.052133
 H        -2.286375        -0.253366         0.501028
 H        -1.988464        -0.988584         2.175145
 H        -4.007303         1.826707         1.084485
 H        -2.987531         3.309162         1.770855
 H        -0.336230         2.735023         0.984983
 H        -0.846793         2.593493         3.401347
 H        -1.199615         0.798724         3.902063
 H         1.295434         1.598982         2.206612
 H         0.656454         0.013299         2.888843
