19
Iteration:  3930
 O         0.670877        -0.238281         0.180434
 C        -0.314356         0.426361         0.903782
 C        -1.679986        -0.116414         1.364918
 C        -1.853632         1.364672         1.942957
 C        -3.037295         2.225695         1.267996
 O        -2.284450         2.168566         0.034636
 C        -0.989275         1.815691         0.768273
 C        -0.910158         1.591510         3.117493
 C         0.352517         0.961813         2.421062
 H         0.765673         0.198070        -0.685710
 H        -2.396709        -0.243526         0.565558
 H        -1.770606        -0.967320         2.062429
 H        -4.009403         1.812680         1.193679
 H        -3.215820         3.231997         1.849712
 H        -0.416446         2.844893         0.575657
 H        -0.941528         2.704357         3.267252
 H        -0.986927         1.135290         4.115822
 H         1.166330         1.592466         2.245683
 H         0.649303        -0.037688         2.847671
