19
Iteration:   581
 O         0.517221        -0.100576         0.080118
 C        -0.321638         0.512496         1.038504
 C        -1.592359        -0.080823         1.669674
 C        -1.837182         1.402202         1.963136
 C        -3.066233         2.056350         1.259430
 O        -2.349139         1.848692        -0.031963
 C        -1.031763         1.835195         0.676174
 C        -0.803447         1.683158         3.071405
 C         0.435000         1.081872         2.337921
 H         0.853224         0.637018        -0.497652
 H        -2.076346        -0.485560         0.739498
 H        -1.776156        -0.845838         2.464780
 H        -3.994465         1.456323         1.065170
 H        -3.155954         3.184620         1.495698
 H        -0.481814         2.811703         0.571384
 H        -0.724977         2.743899         3.236136
 H        -0.966369         1.150289         4.024326
 H         1.146098         1.795775         2.064362
 H         0.929706         0.079710         2.785683
