19
Iteration:   750
 O         0.611980        -0.084091         0.144225
 C        -0.307435         0.485866         0.946217
 C        -1.650691        -0.077223         1.653505
 C        -1.890647         1.449067         1.995554
 C        -3.094845         2.081620         1.237144
 O        -2.396151         1.920143        -0.037039
 C        -1.121007         1.811470         0.663155
 C        -0.711770         1.637674         3.048153
 C         0.453281         1.042420         2.233116
 H         1.416754        -0.236502         0.735171
 H        -2.360973        -0.549233         0.981088
 H        -1.538321        -0.768399         2.455327
 H        -4.064034         1.552199         1.389610
 H        -3.240626         3.163404         1.546382
 H        -0.437943         2.682542         0.601311
 H        -0.581275         2.726147         3.340543
 H        -0.958054         1.143591         4.017354
 H         1.195611         1.883816         2.058654
 H         0.820948         0.244190         2.739596
