19
Iteration:  3357
 O         0.598919        -0.253011         0.249250
 C        -0.295043         0.547681         0.922868
 C        -1.589068        -0.043193         1.562249
 C        -1.829263         1.439160         1.959425
 C        -3.059208         2.031711         1.278478
 O        -2.408584         2.033374        -0.041859
 C        -0.976885         1.928041         0.664766
 C        -0.806630         1.539246         3.131884
 C         0.387540         1.077752         2.259154
 H         0.138611        -0.196593        -0.573283
 H        -2.310237        -0.523553         0.907777
 H        -1.359399        -0.697915         2.375053
 H        -3.984467         1.537453         1.161063
 H        -3.439565         3.111298         1.561206
 H        -0.458402         2.900646         0.552170
 H        -0.787105         2.630768         3.586703
 H        -1.150400         0.742266         3.784009
 H         1.119742         1.880862         2.113272
 H         1.046289         0.273974         2.782896
