19
Iteration:  1420charge 0 multiplicity 1
 O         0.433373        -0.267562         0.077422
 C        -0.207481         0.581883         1.001756
 C        -1.545541         0.016900         1.555345
 C        -1.792501         1.475662         2.026477
 C        -3.036087         1.987650         1.249336
 O        -2.360976         1.862303        -0.113638
 C        -1.037928         1.904109         0.673030
 C        -0.875035         1.660945         3.154508
 C         0.443602         1.071357         2.392758
 H         0.638028         0.184427        -0.714445
 H        -2.359062        -0.403631         0.982989
 H        -1.387879        -0.663419         2.389937
 H        -4.134456         1.538646         1.115773
 H        -3.238549         3.047205         1.511018
 H        -0.562816         2.919590         0.663221
 H        -0.858285         2.654343         3.582164
 H        -1.030104         1.061235         4.075861
 H         1.268646         1.839250         2.179525
 H         0.950453         0.305693         3.062078
