19
Iteration:  2672charge 0 multiplicity 1
 O         0.708462        -0.230283         0.142326
 C        -0.220467         0.540672         1.012020
 C        -1.717559        -0.008999         1.552076
 C        -1.831907         1.472666         1.912008
 C        -3.043535         2.172812         1.324078
 O        -2.383752         1.919595         0.023821
 C        -1.081378         1.837522         0.664557
 C        -0.857005         1.574372         3.077808
 C         0.400508         1.038998         2.310861
 H         0.252432        -0.238713        -0.697003
 H        -2.395360        -0.247257         0.741456
 H        -1.701988        -0.668198         2.375444
 H        -3.974857         1.463064         1.385416
 H        -3.163444         3.276017         1.508250
 H        -0.466216         2.851914         0.649349
 H        -0.554101         2.534815         3.510677
 H        -1.197664         0.808951         3.756429
 H         1.071259         1.833468         2.126702
 H         0.990098         0.207719         2.660097
