19
Iteration:  3378charge 0 multiplicity 1
 O         0.595530        -0.197793         0.076711
 C        -0.270780         0.548732         1.027010
 C        -1.552716        -0.005716         1.433010
 C        -1.835670         1.458411         1.950060
 C        -2.992578         2.122770         1.336347
 O        -2.348134         1.858113        -0.000164
 C        -1.069675         1.850378         0.688083
 C        -0.868588         1.605634         3.193034
 C         0.371077         1.095715         2.344885
 H         0.087969        -0.965763        -0.376823
 H        -2.149593        -0.089062         0.535855
 H        -1.761667        -0.793209         2.112862
 H        -3.942456         1.657569         1.245123
 H        -3.338493         3.267714         1.473370
 H        -0.584035         2.895437         0.581890
 H        -0.661250         2.727617         3.423526
 H        -1.146489         0.944906         3.993251
 H         1.067392         1.857238         2.274032
 H         0.938187         0.208995         2.757702
