19
Iteration:  1605charge 0 multiplicity 1
 O         0.644678        -0.136173         0.145743
 C        -0.271093         0.534490         0.971992
 C        -1.606924        -0.029700         1.542086
 C        -1.817495         1.365075         1.962595
 C        -3.038163         2.084246         1.297943
 O        -2.405122         1.885749        -0.028887
 C        -1.098181         1.834922         0.695648
 C        -0.816304         1.749467         3.042152
 C         0.410477         1.012636         2.363086
 H         0.118626        -0.632943        -0.451981
 H        -2.381790        -0.409034         0.897662
 H        -1.517450        -0.797033         2.336088
 H        -4.039794         1.644458         1.307793
 H        -3.099615         3.242539         1.533283
 H        -0.592430         2.833347         0.597306
 H        -0.548816         2.863229         3.102737
 H        -0.927330         1.603038         4.150628
 H         1.360051         1.446040         2.296926
 H         0.486003        -0.012033         2.765489
