19
Iteration:  3373charge 0 multiplicity 1
 O         0.589848        -0.247819         0.115697
 C        -0.288479         0.586574         0.996311
 C        -1.544952         0.004174         1.450708
 C        -1.823414         1.461915         1.960116
 C        -3.005631         2.100893         1.303338
 O        -2.330838         1.910213        -0.009461
 C        -1.119746         1.881075         0.659560
 C        -0.879481         1.581584         3.205108
 C         0.399664         1.080606         2.351333
 H         0.262775        -0.835556        -0.554816
 H        -2.284242        -0.163908         0.634742
 H        -1.576376        -0.857261         2.210070
 H        -4.029082         1.545210         1.347806
 H        -3.207992         3.124823         1.484806
 H        -0.595822         2.832430         0.513885
 H        -0.654765         2.550735         3.478566
 H        -1.082967         0.941748         4.107798
 H         1.059494         2.034963         2.143468
 H         0.947865         0.256295         2.730797
