19
Iteration:  1801charge 0 multiplicity 1
 O         0.577722        -0.109582         0.168447
 C        -0.298378         0.488778         1.021542
 C        -1.581554        -0.086099         1.650717
 C        -1.899401         1.386868         1.933147
 C        -3.066506         2.132820         1.234177
 O        -2.319590         1.927620         0.000720
 C        -1.056041         1.862666         0.676186
 C        -0.839502         1.584673         3.087655
 C         0.418270         1.145279         2.231661
 H         0.249716        -0.819261        -0.438441
 H        -2.189846        -0.501854         0.790394
 H        -1.452893        -0.751482         2.559015
 H        -3.971292         1.521817         1.357417
 H        -3.283872         3.197337         1.395639
 H        -0.428233         2.730721         0.516600
 H        -0.673114         2.537715         3.594830
 H        -1.002323         0.775772         3.752684
 H         1.042092         1.991266         1.869761
 H         1.290349         0.443641         2.789299
