19
Iteration:  3164charge 0 multiplicity 1
 O         0.618559        -0.088441         0.175667
 C        -0.339907         0.535215         1.047591
 C        -1.678867         0.008013         1.498767
 C        -1.790867         1.513537         2.003367
 C        -3.063261         2.101098         1.242996
 O        -2.357324         1.903834        -0.000002
 C        -1.066106         1.789274         0.613152
 C        -0.723262         1.593579         3.176179
 C         0.376477         0.950077         2.285608
 H         0.266950        -0.422172        -0.638961
 H        -2.275724        -0.362603         0.634703
 H        -1.573331        -0.793123         2.273127
 H        -4.002628         1.418089         1.199354
 H        -3.381453         3.197247         1.463560
 H        -0.320788         2.730525         0.512361
 H        -0.544861         2.606656         3.388232
 H        -1.062308         1.114718         4.094345
 H         1.095715         1.714517         1.941799
 H         0.885055         0.252079         2.827355
