19
Iteration:  4886
 O         0.524508        -0.201850         0.096902
 C        -0.321612         0.514471         1.039840
 C        -1.616579        -0.118338         1.458432
 C        -1.886700         1.409398         1.973422
 C        -3.033345         2.188348         1.194507
 O        -2.213154         2.153349        -0.048831
 C        -1.019581         1.895173         0.767702
 C        -0.883664         1.564628         3.116271
 C         0.411564         0.876582         2.416071
 H         0.004340        -0.364585        -0.677574
 H        -2.261320        -0.624773         0.725477
 H        -1.501175        -0.778375         2.255042
 H        -3.993775         1.750604         0.846297
 H        -3.161743         3.194248         1.470225
 H        -0.415137         2.871723         0.931180
 H        -0.502174         2.539894         3.504529
 H        -1.098815         1.050684         4.142131
 H         1.244000         1.570213         2.395830
 H         0.740984        -0.001264         2.953354
