19
Iteration:  4579
 O         0.447285         0.004718        -0.031497
 C        -0.313184         0.437885         1.020928
 C        -1.719918        -0.062681         1.462076
 C        -1.824183         1.436298         1.987871
 C        -2.906779         2.185238         1.259368
 O        -2.200206         2.075734        -0.093579
 C        -0.951182         1.765603         0.724246
 C        -0.914264         1.511740         3.212780
 C         0.343362         0.893383         2.479276
 H         0.954750        -0.765084         0.265648
 H        -2.417123        -0.260433         0.690840
 H        -1.822458        -0.786830         2.187790
 H        -3.947621         1.782416         1.267807
 H        -2.936273         3.264402         1.434609
 H        -0.350147         2.734260         0.643571
 H        -0.791683         2.527811         3.379418
 H        -1.243108         0.945085         4.065845
 H         1.089262         1.640155         2.410249
 H         0.779981         0.019571         2.800669
