19
Iteration:   519
 O         0.435735        -0.298880         0.136139
 C        -0.223083         0.645670         0.995486
 C        -1.441206        -0.107779         1.477665
 C        -1.839832         1.375399         1.924044
 C        -3.081160         2.076057         1.345249
 O        -2.419215         1.906724        -0.037908
 C        -1.117867         1.884824         0.652209
 C        -0.881680         1.707831         3.064267
 C         0.529037         1.074375         2.418704
 H         1.194671         0.209867        -0.264045
 H        -1.903636        -0.341904         0.482869
 H        -1.314064        -0.848278         2.243308
 H        -4.045693         1.489527         1.392793
 H        -3.163029         3.110984         1.647969
 H        -0.550656         2.883086         0.647286
 H        -0.869014         2.797308         3.274994
 H        -1.283428         1.316100         4.064312
 H         1.279463         1.982062         2.358961
 H         0.885750         0.178577         2.957867
