19
Iteration:  2663charge 0 multiplicity 1
 O         0.697123        -0.207333         0.187012
 C        -0.220288         0.533545         0.990498
 C        -1.740302        -0.040009         1.555692
 C        -1.880875         1.516309         1.964267
 C        -3.097198         2.174488         1.272654
 O        -2.406162         1.935376        -0.012687
 C        -1.055565         1.831164         0.635420
 C        -0.803889         1.510274         3.120008
 C         0.489980         1.058489         2.287879
 H         0.350129        -0.133814        -0.693386
 H        -2.361367        -0.389791         0.736753
 H        -1.755970        -0.727446         2.392217
 H        -4.262439         1.886121         1.493468
 H        -2.990457         3.217026         1.409115
 H        -0.550839         2.781987         0.311034
 H        -0.816794         2.346449         3.840644
 H        -0.903886         0.725133         3.867082
 H         1.135066         1.882326         2.013348
 H         1.037591         0.140729         2.838339
