19
Iteration:  2466
 O         0.573107        -0.130827         0.145722
 C        -0.318452         0.551275         0.972878
 C        -1.641265        -0.001863         1.511195
 C        -1.782112         1.540712         1.947969
 C        -3.083046         1.860195         1.253937
 O        -2.339538         2.030646         0.015620
 C        -1.017037         1.880325         0.738517
 C        -0.782002         1.730915         3.063409
 C         0.425291         0.886360         2.359386
 H         0.076044        -0.511067        -0.602455
 H        -2.381609        -0.275403         0.759325
 H        -1.623537        -0.621358         2.376663
 H        -3.921709         1.098037         1.325612
 H        -3.582195         2.798755         1.589071
 H        -0.482067         2.770669         0.519965
 H        -0.517978         2.792972         3.017639
 H        -1.080563         1.313288         4.007241
 H         1.351680         1.398521         2.323840
 H         0.648990        -0.137725         2.849063
