19
Iteration:  4069charge 0 multiplicity 1
 O         0.553300        -0.196654         0.118315
 C        -0.308162         0.499664         0.977547
 C        -1.660737        -0.024717         1.337828
 C        -1.821803         1.465229         1.922577
 C        -2.961637         2.145328         1.326034
 O        -2.283665         2.117674        -0.011675
 C        -0.971674         1.880555         0.715162
 C        -0.915835         1.489520         3.134323
 C         0.270567         0.917365         2.423374
 H         1.274588        -0.563372         0.720650
 H        -2.289871        -0.117726         0.474494
 H        -1.649026        -0.945483         1.943057
 H        -4.012688         1.643272         1.213161
 H        -3.128395         3.093683         1.640250
 H        -0.404475         2.771629         0.732158
 H        -0.713248         2.488833         3.418009
 H        -1.147696         0.929536         4.062946
 H         1.122775         1.739918         2.135767
 H         0.896200         0.143305         2.818250
