19
Iteration:  1225
 O         0.533008        -0.211214         0.191130
 C        -0.274246         0.577186         0.988742
 C        -1.472648        -0.077174         1.479627
 C        -1.800718         1.458495         1.943680
 C        -3.059977         2.101073         1.359445
 O        -2.443420         1.816520         0.049701
 C        -1.114301         1.831938         0.583407
 C        -0.858905         1.711189         3.079096
 C         0.423080         1.077828         2.317631
 H         1.424471         0.038260         0.100986
 H        -2.132887        -0.328683         0.598718
 H        -1.409476        -0.870762         2.190079
 H        -4.052953         1.611583         1.438658
 H        -3.057528         3.193091         1.254770
 H        -0.594020         2.806604         0.486613
 H        -0.763810         2.806649         3.266447
 H        -1.060554         1.213008         4.106888
 H         1.166308         1.902374         1.887533
 H         0.765480         0.157618         2.713443
