19
Iteration:   600
 O         0.452954        -0.225610         0.142128
 C        -0.183481         0.666207         0.927112
 C        -1.430935        -0.057937         1.475084
 C        -1.848806         1.407700         1.970554
 C        -2.977357         2.125123         1.325402
 O        -2.432868         1.792439        -0.045669
 C        -1.113308         1.822979         0.703558
 C        -0.893659         1.666925         3.129301
 C         0.397975         1.065911         2.379708
 H         0.831005         0.284748        -0.655778
 H        -2.126578        -0.505992         0.785828
 H        -1.173768        -0.776154         2.313285
 H        -4.014727         1.839533         1.346662
 H        -2.834648         3.212820         1.322241
 H        -0.715020         2.943585         0.571059
 H        -0.752812         2.739487         3.311436
 H        -1.163934         1.101033         4.007260
 H         1.201338         1.802353         2.410034
 H         0.848775         0.303992         3.028046
