19
Iteration:  1040charge 0 multiplicity 1
 O         0.514393        -0.232228         0.130203
 C        -0.279548         0.582157         0.984408
 C        -1.557570        -0.068697         1.584350
 C        -1.808888         1.468416         1.930595
 C        -3.103377         1.935624         1.294310
 O        -2.449199         1.885434         0.038122
 C        -1.095449         1.891500         0.627119
 C        -0.803213         1.741357         3.063662
 C         0.495469         1.162887         2.277848
 H         1.318745        -0.575534         0.547440
 H        -2.234786        -0.464207         0.766436
 H        -1.249046        -0.779590         2.396790
 H        -3.790325         1.130642         1.329834
 H        -3.378390         2.994671         1.543025
 H        -0.529891         2.867573         0.503395
 H        -0.673925         2.817988         3.136219
 H        -0.984211         1.303501         4.100008
 H         1.283042         1.806749         1.916888
 H         0.849834         0.277856         2.827927
