19
Iteration:  4590charge 0 multiplicity 1
 O         0.449973        -0.101990         0.036110
 C        -0.332950         0.550779         1.044036
 C        -1.751955        -0.072470         1.432724
 C        -1.872299         1.407425         1.971623
 C        -2.932021         2.152317         1.195850
 O        -2.217231         2.089473        -0.103652
 C        -1.015658         1.924679         0.772901
 C        -0.831773         1.500380         3.198571
 C         0.429648         0.886356         2.433512
 H         0.857876        -0.966427         0.368242
 H        -2.264872        -0.218922         0.525448
 H        -1.746015        -0.867109         2.069396
 H        -3.894246         1.591136         1.081445
 H        -3.069092         3.176191         1.592529
 H        -0.283905         2.815574         0.757382
 H        -0.573793         2.361615         3.727410
 H        -1.234369         0.882895         3.982900
 H         1.237217         1.555320         2.306442
 H         0.762916         0.078091         2.981773
