19
Iteration:  1448charge 0 multiplicity 1
 O         0.545782        -0.134683         0.190161
 C        -0.288173         0.514302         1.032110
 C        -1.626370        -0.042018         1.537843
 C        -1.767219         1.567614         2.015797
 C        -3.116645         2.051263         1.257430
 O        -2.293765         1.863319        -0.023932
 C        -1.023211         1.814123         0.640130
 C        -0.821727         1.593784         3.125474
 C         0.404499         1.080083         2.262315
 H         0.167664        -0.143207        -0.710173
 H        -2.471911        -0.313918         0.840496
 H        -1.523606        -0.738211         2.418420
 H        -3.979484         1.498376         1.231937
 H        -3.507579         3.097100         1.330830
 H        -0.368328         2.683424         0.421244
 H        -0.739250         2.651201         3.582537
 H        -0.994388         0.792274         3.854503
 H         1.056917         1.839166         1.943057
 H         1.033492         0.413992         2.891840
