19
Iteration:   280charge 0 multiplicity 1
 O         0.533091        -0.088688        -0.039165
 C        -0.312090         0.499312         0.992897
 C        -1.695049         0.056804         1.688837
 C        -1.855851         1.464475         2.007084
 C        -3.133844         1.924689         1.198158
 O        -2.345338         1.853367        -0.012867
 C        -1.013474         1.770574         0.706874
 C        -0.735700         1.644080         3.114743
 C         0.453106         1.181223         2.348242
 H         1.383230        -0.401165         0.404276
 H        -2.357480        -0.145121         0.854606
 H        -1.558550        -0.648145         2.539107
 H        -3.902844         1.157531         1.053240
 H        -3.382481         2.947448         1.435506
 H        -0.398854         2.548332         0.440889
 H        -0.633454         2.682703         3.400416
 H        -0.928570         1.103228         4.072800
 H         1.185652         1.949126         1.914945
 H         0.931102         0.466870         2.940200
