19
Iteration:  2171charge 0 multiplicity 1
 O         0.503839        -0.156632         0.114162
 C        -0.226952         0.539616         0.979018
 C        -1.572806        -0.038833         1.574964
 C        -1.840496         1.439544         1.963174
 C        -3.050860         2.089339         1.275193
 O        -2.329937         1.845880        -0.016464
 C        -1.060855         1.888358         0.662882
 C        -0.847626         1.634170         3.153008
 C         0.449895         1.076923         2.322256
 H         0.094083        -0.285964        -0.783351
 H        -2.137137        -0.560591         0.790717
 H        -1.438306        -0.769347         2.406081
 H        -3.947489         1.576314         1.386569
 H        -3.208016         3.143288         1.366083
 H        -0.572636         2.785857         0.519548
 H        -0.626354         2.653476         3.471625
 H        -1.296043         1.046003         3.978845
 H         1.125089         2.047806         2.170230
 H         0.858039         0.173158         2.878402
