19
Iteration:  4695charge 0 multiplicity 1
 O         0.563615        -0.045760         0.135669
 C        -0.326001         0.557948         1.041405
 C        -1.728786        -0.017492         1.466675
 C        -1.823995         1.461480         1.999716
 C        -2.953475         2.205422         1.219726
 O        -2.225168         1.993164        -0.071605
 C        -0.981702         1.873029         0.690078
 C        -0.859100         1.492882         3.201391
 C         0.301455         0.766841         2.398716
 H         0.336204         0.175936        -0.788729
 H        -2.496362        -0.211577         0.662112
 H        -1.707969        -0.920890         2.193241
 H        -3.903184         1.698123         1.222837
 H        -3.104219         3.265193         1.293495
 H        -0.228025         2.673666         0.573063
 H        -0.639902         2.546182         3.506684
 H        -1.250466         0.816351         3.952126
 H         1.249558         1.384504         2.287618
 H         0.627910        -0.271445         2.776948
