19
Iteration:   871
 O         0.503279        -0.184219         0.108536
 C        -0.225148         0.540444         0.968664
 C        -1.507271        -0.155383         1.537545
 C        -1.793075         1.392000         1.968354
 C        -3.026378         2.135938         1.341540
 O        -2.458613         1.816257         0.016698
 C        -1.141530         1.799548         0.609752
 C        -0.819329         1.798621         3.055984
 C         0.391404         1.100708         2.380460
 H         1.292403         0.359036        -0.023633
 H        -2.064443        -0.574190         0.678548
 H        -1.281864        -0.867117         2.280388
 H        -4.057496         1.716162         1.445944
 H        -3.042847         3.255899         1.446669
 H        -0.668789         2.807830         0.261567
 H        -0.645190         2.868503         3.331739
 H        -0.867322         1.233755         4.027513
 H         1.237706         1.799139         2.126809
 H         0.662362         0.324551         2.984748
