19
Iteration:  4704
 O         0.521024        -0.073969         0.118745
 C        -0.278366         0.470520         1.056494
 C        -1.705007         0.023098         1.486766
 C        -1.775670         1.526527         1.890853
 C        -3.052677         2.156184         1.236090
 O        -2.221367         2.022390        -0.057799
 C        -0.926111         1.894914         0.682427
 C        -0.908760         1.434225         3.169088
 C         0.349841         0.739709         2.431094
 H         0.237673         0.500036        -0.633297
 H        -2.343887        -0.167005         0.545569
 H        -1.944080        -0.722339         2.379657
 H        -3.929445         1.540040         1.251746
 H        -3.205697         3.237286         1.487777
 H        -0.341965         2.935543         0.385120
 H        -0.425146         2.402842         3.522046
 H        -1.319154         1.087450         4.139532
 H         1.074146         1.586651         2.406021
 H         0.804885        -0.129392         3.018031
