19
Iteration:  3106
 O         0.563266        -0.120190         0.057574
 C        -0.324909         0.473515         1.015782
 C        -1.620530        -0.159356         1.559690
 C        -1.773079         1.464850         1.976519
 C        -3.008314         2.052930         1.283877
 O        -2.318725         1.997888        -0.043578
 C        -1.038173         1.826893         0.707464
 C        -0.862614         1.695229         3.119508
 C         0.397944         1.062734         2.365563
 H        -0.133400        -0.483092        -0.601012
 H        -2.310469        -0.512853         0.790187
 H        -1.466848        -0.909754         2.340244
 H        -3.985346         1.384163         1.193313
 H        -3.254767         3.108866         1.654705
 H        -0.278611         2.776160         0.585892
 H        -0.679967         2.755770         3.308336
 H        -1.176276         1.219438         4.018346
 H         1.193171         1.787689         2.093944
 H         0.775446         0.222333         2.962729
