19
Iteration:  4126
 O         0.471115        -0.142064         0.092689
 C        -0.352466         0.514968         1.015639
 C        -1.648638        -0.123896         1.494475
 C        -1.862457         1.465826         1.968829
 C        -2.998183         2.168877         1.170599
 O        -2.162791         2.083753        -0.011347
 C        -0.984497         1.863561         0.750498
 C        -0.919906         1.555179         3.209289
 C         0.343457         0.866304         2.360760
 H         1.167535         0.439902        -0.169295
 H        -2.218118        -0.403547         0.588080
 H        -1.605565        -0.916932         2.225803
 H        -3.977820         1.673856         0.934758
 H        -3.088580         3.163576         1.360407
 H        -0.353994         2.682434         0.781392
 H        -0.703371         2.628337         3.435293
 H        -1.046052         0.963810         4.123732
 H         1.296983         1.541403         2.062706
 H         0.499452        -0.177068         2.629695
