19
Iteration:  4177charge 0 multiplicity 1
 O         0.618613        -0.134985         0.189099
 C        -0.279744         0.540064         0.919650
 C        -1.637411        -0.045154         1.397773
 C        -1.884275         1.453332         1.952245
 C        -2.987677         2.223851         1.248229
 O        -2.268094         2.077966         0.040861
 C        -1.000320         1.872617         0.661792
 C        -0.895565         1.518973         3.121942
 C         0.304144         0.809479         2.462131
 H         0.237326        -0.590785        -0.599117
 H        -2.426258        -0.269230         0.687301
 H        -1.441876        -0.859383         2.127983
 H        -4.067048         1.769917         1.179032
 H        -3.141753         3.389457         1.462751
 H        -0.313599         2.834756         0.443874
 H        -0.584862         2.493225         3.418117
 H        -1.136096         0.936266         4.046277
 H         1.186496         1.319908         2.473344
 H         0.489766        -0.191733         2.832565
