19
Iteration:  3284
 O         0.565355        -0.037184         0.098991
 C        -0.258793         0.611152         1.012723
 C        -1.580613        -0.014812         1.561900
 C        -1.848639         1.458703         1.955379
 C        -3.019634         2.141659         1.247462
 O        -2.406758         1.815141        -0.086169
 C        -1.023428         1.881240         0.641372
 C        -0.805981         1.607410         3.142137
 C         0.396891         0.886810         2.441617
 H        -0.069174        -0.635477        -0.335002
 H        -2.235843        -0.345248         0.691374
 H        -1.557555        -0.833761         2.320298
 H        -4.101212         1.688355         1.361278
 H        -3.074836         3.159690         1.646514
 H        -0.566976         2.859039         0.492546
 H        -0.524887         2.623229         3.258000
 H        -0.968649         1.141024         4.114030
 H         1.367213         1.486908         2.235891
 H         0.712822        -0.063204         2.887997
