19
Iteration:  2379
 O         0.718901        -0.161139         0.228891
 C        -0.240491         0.583701         0.953122
 C        -1.638142        -0.064843         1.534274
 C        -1.836321         1.478398         1.979372
 C        -3.051439         2.158351         1.306434
 O        -2.462412         1.912943        -0.001434
 C        -1.105186         1.847632         0.615820
 C        -0.804166         1.528462         3.078777
 C         0.391123         1.016389         2.253838
 H         0.227649        -0.602095        -0.442946
 H        -2.451311        -0.438077         0.910419
 H        -1.490834        -0.767103         2.355543
 H        -4.090450         1.925459         1.465591
 H        -2.949645         3.277269         1.554629
 H        -0.451407         2.853151         0.520128
 H        -0.586351         2.557611         3.434662
 H        -1.001747         0.925501         3.986872
 H         1.028729         1.830627         2.109221
 H         0.913362         0.220211         2.719687
