19
Iteration:   730
 O         0.607315        -0.131673         0.039090
 C        -0.276781         0.567798         1.016658
 C        -1.617777        -0.015441         1.622155
 C        -1.849912         1.514030         1.969376
 C        -3.074086         2.120128         1.228120
 O        -2.357553         1.740787         0.011968
 C        -1.119712         1.887536         0.718113
 C        -0.792734         1.644166         3.136684
 C         0.409703         0.996992         2.216273
 H         1.477384        -0.203953         0.482082
 H        -2.413840        -0.237887         0.878937
 H        -1.543618        -0.616744         2.544655
 H        -4.042666         1.619747         1.297675
 H        -3.287774         3.191403         1.357640
 H        -0.717330         2.795642         0.416548
 H        -0.708273         2.617658         3.672051
 H        -1.085461         0.921922         3.948074
 H         1.165710         1.818756         1.903708
 H         0.847698         0.149543         2.699151
