19
Iteration:  2255charge 0 multiplicity 1
 O         0.636553        -0.145306         0.165860
 C        -0.227775         0.541085         0.990196
 C        -1.642933        -0.001119         1.486632
 C        -1.762026         1.442830         1.959190
 C        -3.064410         2.135266         1.364586
 O        -2.434443         1.835463        -0.005330
 C        -1.048794         1.850025         0.613136
 C        -0.844106         1.606062         3.112577
 C         0.408164         1.042743         2.325183
 H         0.160891        -0.339215        -0.638816
 H        -2.438521        -0.301697         0.829024
 H        -1.423649        -0.698847         2.248948
 H        -4.055470         1.602820         1.630630
 H        -3.203069         3.293920         1.512329
 H        -0.460505         2.840006         0.273675
 H        -0.709840         2.678478         3.325864
 H        -1.172109         1.054467         3.984542
 H         1.187556         1.663315         2.118848
 H         0.901638         0.148015         2.843661
