19
Iteration:  2474charge 0 multiplicity 1
 O         0.595516        -0.083309         0.174333
 C        -0.272741         0.482798         1.004779
 C        -1.687566         0.024590         1.519986
 C        -1.841999         1.457938         1.923380
 C        -3.107561         1.924920         1.303382
 O        -2.340343         2.042047         0.004175
 C        -1.003542         1.852327         0.683533
 C        -0.790244         1.716170         3.051844
 C         0.460251         0.921306         2.315116
 H         0.130138        -0.624266        -0.539193
 H        -2.418600        -0.290925         0.823960
 H        -1.688349        -0.719206         2.297983
 H        -4.033711         1.143135         1.389467
 H        -3.471656         2.898421         1.550337
 H        -0.475550         2.700056         0.469459
 H        -0.411193         2.705546         3.331830
 H        -1.085399         1.328031         4.010046
 H         1.422254         1.540650         2.234936
 H         0.709803        -0.181243         2.864133
