19
Iteration:  4063
 O         0.603792        -0.182687         0.115556
 C        -0.324638         0.490305         0.968130
 C        -1.708933        -0.064089         1.378044
 C        -1.826011         1.396878         1.903160
 C        -2.990268         2.153637         1.282083
 O        -2.254282         2.128997         0.016280
 C        -1.012766         1.913477         0.697081
 C        -0.909737         1.487359         3.133923
 C         0.322476         0.918422         2.387335
 H         1.253000        -0.535512         0.742735
 H        -2.411012        -0.187439         0.522168
 H        -1.763949        -0.866323         2.123593
 H        -3.956896         1.758565         1.368950
 H        -3.067247         3.296109         1.679463
 H        -0.452676         2.908234         0.864688
 H        -0.688243         2.613950         3.251691
 H        -1.221992         1.018562         4.070493
 H         1.074181         1.671783         2.340186
 H         0.875491         0.021204         2.832600
