19
Iteration:  2395charge 0 multiplicity 1
 O         0.699815        -0.077922         0.152976
 C        -0.405913         0.454625         0.925824
 C        -1.668355        -0.053236         1.605105
 C        -1.825040         1.414943         2.020501
 C        -2.937223         2.233072         1.280718
 O        -2.383410         1.880848        -0.018346
 C        -1.094490         1.762714         0.618160
 C        -0.819699         1.559262         3.225548
 C         0.377529         1.108362         2.259678
 H         0.483297        -0.428818        -0.752316
 H        -2.360524        -0.296032         0.753199
 H        -1.583556        -0.857628         2.407065
 H        -4.028765         1.779248         1.268555
 H        -3.102376         3.310006         1.430960
 H        -0.560990         2.629601         0.422470
 H        -0.744779         2.590987         3.586568
 H        -1.080800         0.735765         3.932292
 H         1.097586         1.989939         1.845274
 H         1.133252         0.332469         2.644407
