19
Iteration:   312charge 0 multiplicity 1
 O         0.537578        -0.183661         0.130922
 C        -0.318206         0.523740         0.944454
 C        -1.455326        -0.098408         1.595406
 C        -1.813254         1.398428         1.956807
 C        -3.031045         1.989227         1.292827
 O        -2.428659         1.943486        -0.053743
 C        -1.130552         1.870619         0.712721
 C        -0.804265         1.783699         3.024977
 C         0.344320         1.066835         2.331273
 H         1.374718         0.066080         0.470115
 H        -2.236274        -0.502577         0.910830
 H        -1.055955        -0.878264         2.306147
 H        -4.026505         1.410020         1.333779
 H        -3.251069         3.023204         1.672740
 H        -0.593417         2.826480         0.696795
 H        -0.577103         2.830149         3.106584
 H        -1.048484         1.285149         4.019062
 H         1.330412         1.576460         2.062527
 H         0.665003         0.184772         2.790192
