19
Iteration:  1866charge 0 multiplicity 1
 O         0.684515        -0.072842         0.130070
 C        -0.306514         0.501982         0.955754
 C        -1.597110        -0.076728         1.606015
 C        -1.820459         1.488582         2.014869
 C        -3.060815         2.055352         1.313851
 O        -2.398831         1.892172        -0.031871
 C        -1.092000         1.836477         0.659472
 C        -0.776489         1.760494         3.005927
 C         0.383292         0.882805         2.350721
 H         0.464995         0.093068        -0.824014
 H        -2.255449        -0.505229         0.759320
 H        -1.715557        -0.700105         2.559489
 H        -4.000882         1.383208         1.465612
 H        -3.417838         2.986049         1.507129
 H        -0.559442         2.796334         0.795214
 H        -0.606556         2.849491         3.010107
 H        -1.158812         1.480391         3.971981
 H         1.181604         1.596185         2.302548
 H         0.579421        -0.087529         2.914051
