19
Iteration:  1150
 O         0.499698        -0.133724         0.014041
 C        -0.229336         0.606978         1.017445
 C        -1.505172        -0.078333         1.559933
 C        -1.847818         1.448184         1.963127
 C        -3.016448         1.988323         1.303842
 O        -2.381932         1.831447        -0.024626
 C        -1.120612         1.836597         0.714473
 C        -0.818628         1.841046         3.082484
 C         0.449480         1.021786         2.332497
 H         0.770156        -1.040510         0.437366
 H        -2.222079        -0.256200         0.673095
 H        -1.519244        -0.810142         2.402686
 H        -3.867520         1.351669         1.368940
 H        -3.425027         3.006930         1.636255
 H        -0.670742         2.921471         0.515754
 H        -0.722675         2.974385         3.096277
 H        -1.150445         1.341474         4.063641
 H         1.346934         1.682280         2.243070
 H         0.474075         0.081533         2.950452
