19
Iteration:  1570charge 0 multiplicity 1
 O         0.462842        -0.146294         0.102111
 C        -0.242576         0.529253         1.008089
 C        -1.576900        -0.085512         1.607510
 C        -1.850231         1.463144         1.973079
 C        -3.032439         2.041805         1.188062
 O        -2.289752         1.892136        -0.017957
 C        -1.004431         1.781208         0.660007
 C        -0.897723         1.638495         3.196207
 C         0.436541         1.174646         2.288778
 H        -0.020832        -0.257574        -0.694635
 H        -2.388161        -0.301115         0.880336
 H        -1.550658        -0.701101         2.558915
 H        -3.929719         1.512873         1.363442
 H        -3.205520         3.194674         1.460329
 H        -0.340897         2.635589         0.552064
 H        -0.633807         2.725105         3.385126
 H        -0.953183         0.915247         4.005349
 H         1.149982         1.866569         2.079518
 H         0.952089         0.347116         2.913702
