19
Iteration:  1447
 O         0.538573        -0.139056         0.187120
 C        -0.282744         0.517238         1.031114
 C        -1.625784        -0.039166         1.540896
 C        -1.762375         1.565608         2.012161
 C        -3.115111         2.051394         1.256006
 O        -2.292282         1.862883        -0.020774
 C        -1.025339         1.817345         0.637613
 C        -0.819512         1.593649         3.127444
 C         0.401824         1.080327         2.268555
 H         0.176126        -0.112144        -0.688286
 H        -2.434440        -0.322458         0.838170
 H        -1.534696        -0.751650         2.395267
 H        -4.001419         1.491661         1.238303
 H        -3.528038         3.091847         1.300752
 H        -0.368319         2.652000         0.407127
 H        -0.749630         2.613777         3.591733
 H        -0.997606         0.811413         3.874362
 H         1.071735         1.859672         1.964925
 H         1.013897         0.436088         2.848412
