19
Iteration:  2876
 O         0.470304        -0.080468         0.104708
 C        -0.263206         0.536128         1.040268
 C        -1.540195        -0.000882         1.507153
 C        -1.827836         1.427665         1.953524
 C        -3.068059         2.076819         1.302247
 O        -2.283060         1.859632         0.000815
 C        -0.960439         1.896509         0.653610
 C        -0.839912         1.606915         3.119078
 C         0.361767         1.000964         2.330841
 H        -0.055880        -0.647256        -0.536923
 H        -2.273776        -0.327573         0.703987
 H        -1.551667        -0.630145         2.440878
 H        -4.059621         1.580440         1.300148
 H        -3.094031         3.114099         1.457207
 H        -0.354714         2.739909         0.568454
 H        -0.886191         2.631679         3.469452
 H        -1.116736         0.959525         3.922363
 H         1.206352         1.759768         2.072661
 H         0.684833         0.215116         2.945596
