19
Iteration:   282charge 0 multiplicity 1
 O         0.530791        -0.081813        -0.017832
 C        -0.293891         0.486059         1.000143
 C        -1.699868         0.039335         1.694922
 C        -1.863159         1.451319         2.001253
 C        -3.154042         1.920035         1.193007
 O        -2.338875         1.873882        -0.012518
 C        -1.029593         1.784935         0.715885
 C        -0.733048         1.635814         3.111945
 C         0.457403         1.182830         2.336504
 H         1.417967        -0.331051         0.427962
 H        -2.396372        -0.172703         0.851048
 H        -1.555193        -0.562940         2.529441
 H        -3.898418         1.190893         1.111203
 H        -3.404771         2.925585         1.385147
 H        -0.342772         2.523296         0.330053
 H        -0.580579         2.729119         3.311663
 H        -0.863939         1.141521         4.009228
 H         1.218727         1.902556         1.934324
 H         0.954619         0.366279         2.859610
