19
Iteration:  1009charge 0 multiplicity 1
 O         0.628379         0.002054         0.066402
 C        -0.299089         0.515557         1.033877
 C        -1.612753        -0.040077         1.716656
 C        -1.831650         1.531810         1.959494
 C        -3.095319         1.994603         1.268665
 O        -2.408213         1.821026         0.024926
 C        -1.126030         1.767616         0.606528
 C        -0.759533         1.735873         3.031361
 C         0.409986         1.040099         2.280983
 H         1.021430        -0.883299         0.224437
 H        -2.321520        -0.556498         0.980198
 H        -1.373029        -0.741222         2.568661
 H        -3.946446         1.322848         1.410351
 H        -3.505469         3.042361         1.456335
 H        -0.494985         2.562973         0.373310
 H        -0.352209         2.745010         3.004582
 H        -0.935098         1.492490         4.031568
 H         1.189224         1.615359         1.842028
 H         0.797382         0.082257         2.786777
