19
Iteration:  4051
 O         0.682410        -0.118307         0.115390
 C        -0.269390         0.514346         0.939651
 C        -1.770683        -0.118038         1.482809
 C        -1.922014         1.321437         1.951725
 C        -3.008239         2.232909         1.267297
 O        -2.257495         2.161886         0.001510
 C        -1.052507         1.869540         0.768164
 C        -0.914384         1.550160         3.063693
 C         0.384103         0.839385         2.307958
 H         1.389458        -0.614044         0.639345
 H        -2.406106        -0.521906         0.679488
 H        -1.822598        -0.794469         2.339324
 H        -3.973837         1.874127         1.044294
 H        -2.942350         3.378703         1.662405
 H        -0.356640         2.787735         0.793721
 H        -0.816959         2.657835         3.403685
 H        -1.230405         1.039456         3.997970
 H         1.326070         1.482627         2.201919
 H         0.507277        -0.107147         2.895649
