19
Iteration:   247charge 0 multiplicity 1
 O         0.464389        -0.063820         0.076173
 C        -0.287425         0.652742         0.996044
 C        -1.412980        -0.056985         1.563640
 C        -1.833106         1.429007         1.957267
 C        -3.024375         2.077145         1.318008
 O        -2.403940         1.730524        -0.009465
 C        -1.016689         1.832595         0.621452
 C        -0.877328         1.646823         3.085355
 C         0.398822         1.118573         2.340351
 H         0.282056        -1.020374         0.317320
 H        -1.960074        -0.625673         0.845418
 H        -1.180999        -0.798599         2.364456
 H        -4.070211         1.779260         1.322632
 H        -3.056794         3.126195         1.583927
 H        -0.540300         2.725725         0.426406
 H        -0.818495         2.709432         3.214514
 H        -1.166970         1.192633         4.059546
 H         1.203943         1.901234         2.213172
 H         0.808624         0.334564         2.905758
