19
Iteration:  3607
 O         0.543403        -0.115763         0.079881
 C        -0.356545         0.494282         0.987868
 C        -1.626108        -0.087039         1.490853
 C        -1.956305         1.424529         2.048405
 C        -3.070171         2.167357         1.239855
 O        -2.225708         2.009269        -0.010816
 C        -0.982957         1.884835         0.734331
 C        -0.780599         1.513820         3.115121
 C         0.360840         1.024601         2.262664
 H         0.933936        -0.950716         0.484352
 H        -2.332272        -0.514852         0.762211
 H        -1.474773        -0.788944         2.331655
 H        -4.024493         1.621289         1.255616
 H        -3.292246         3.224843         1.345661
 H        -0.394477         2.738176         0.753506
 H        -0.721183         2.558321         3.573725
 H        -1.047994         0.850723         3.903134
 H         0.969184         1.987837         1.973491
 H         1.076787         0.304500         2.868342
