19
Iteration:  3015
 O         0.556998        -0.057317         0.074469
 C        -0.324883         0.463474         0.997687
 C        -1.603301        -0.068083         1.576968
 C        -1.849009         1.444878         1.989854
 C        -2.998059         2.145028         1.256780
 O        -2.303647         1.892074        -0.068386
 C        -1.076601         1.752017         0.757373
 C        -0.791427         1.620750         3.166172
 C         0.362645         1.084484         2.305087
 H         0.175828        -0.555512        -0.651632
 H        -2.317382        -0.309448         0.784006
 H        -1.478349        -0.835799         2.292364
 H        -4.058092         1.830430         1.170800
 H        -2.906435         3.227552         1.512885
 H        -0.480555         2.716556         0.619956
 H        -0.590670         2.671168         3.556180
 H        -1.080231         0.954194         4.021369
 H         1.038255         1.895355         2.152509
 H         0.847944         0.128974         2.757456
