19
Iteration:   740charge 0 multiplicity 1
 O         0.643424        -0.105522         0.105419
 C        -0.355099         0.538202         0.954637
 C        -1.660607         0.009284         1.646970
 C        -1.852546         1.491526         2.013310
 C        -3.131079         2.122452         1.252206
 O        -2.385436         1.827685        -0.021055
 C        -1.083123         1.784034         0.731372
 C        -0.811498         1.617842         3.052588
 C         0.486099         1.053382         2.212850
 H         1.477909        -0.166288         0.664743
 H        -2.400828        -0.488006         0.994677
 H        -1.368757        -0.614977         2.470154
 H        -4.067866         1.546514         1.189300
 H        -3.270955         3.227217         1.219011
 H        -0.642803         2.723950         0.812052
 H        -0.608524         2.645705         3.466585
 H        -0.829922         0.822143         3.832501
 H         1.481863         1.490064         1.841891
 H         0.822519         0.248932         2.698646
