19
Iteration:  1514charge 0 multiplicity 1
 O         0.683217        -0.167337         0.170070
 C        -0.266741         0.531208         0.990548
 C        -1.606781        -0.043106         1.504174
 C        -1.816902         1.408037         1.906595
 C        -2.990137         2.044750         1.365478
 O        -2.416871         1.920027        -0.008809
 C        -1.055545         1.850698         0.594055
 C        -0.856242         1.736555         3.055815
 C         0.363478         1.008250         2.373259
 H         0.016548        -0.516155        -0.454617
 H        -2.507044        -0.157797         0.814777
 H        -1.694848        -0.866250         2.270990
 H        -3.907988         1.537191         1.487649
 H        -3.254251         3.096246         1.784462
 H        -0.600855         2.849695         0.455094
 H        -0.573348         2.851280         3.080352
 H        -1.023394         1.468997         4.115396
 H         1.238202         1.530572         2.267732
 H         0.634181         0.114103         3.029021
