19
Iteration:   899
 O         0.580592        -0.234706         0.094875
 C        -0.205738         0.524445         0.946760
 C        -1.565476        -0.073206         1.631362
 C        -1.804868         1.420494         1.969512
 C        -3.100150         1.995257         1.361410
 O        -2.446251         1.929937        -0.003879
 C        -1.132665         1.865413         0.681939
 C        -0.827663         1.790551         2.998399
 C         0.399895         1.099673         2.239106
 H         1.378676        -0.334233         0.687768
 H        -2.085522        -0.350423         0.720023
 H        -1.407148        -0.917289         2.380673
 H        -3.929474         1.300434         1.465841
 H        -3.321268         3.060647         1.527557
 H        -0.728255         2.852920         0.677532
 H        -0.564619         2.826575         3.097514
 H        -0.921628         1.367657         3.981134
 H         1.223438         1.783801         2.071310
 H         0.871260         0.202283         2.897278
