19
Iteration:  4353charge 0 multiplicity 1
 O         0.542686        -0.135080         0.053138
 C        -0.342616         0.443460         0.992117
 C        -1.701591        -0.082586         1.450058
 C        -1.902235         1.317200         1.949040
 C        -2.943689         2.150202         1.289043
 O        -2.191747         2.192368         0.025522
 C        -0.994166         1.852026         0.695743
 C        -0.951935         1.511777         3.089574
 C         0.404065         1.002486         2.401554
 H         0.827672        -0.995485         0.466941
 H        -2.365847        -0.250147         0.566196
 H        -1.911123        -0.799737         2.273904
 H        -3.847223         1.811754         1.006479
 H        -2.894724         3.120499         1.775499
 H        -0.217676         2.506092         0.635611
 H        -0.910574         2.595737         3.296186
 H        -1.240328         0.914771         3.994071
 H         0.880147         1.977799         2.308920
 H         1.086611         0.264871         2.918208
