19
Iteration:  3249
 O         0.615465        -0.093833         0.125509
 C        -0.332323         0.548861         0.966725
 C        -1.692592         0.001100         1.638408
 C        -1.849774         1.519336         1.957535
 C        -3.036339         2.067700         1.288732
 O        -2.273868         1.871499        -0.002106
 C        -0.970188         1.863627         0.686113
 C        -0.823640         1.531227         3.137094
 C         0.359842         0.999867         2.245395
 H         0.067862        -0.447274        -0.593925
 H        -2.336709        -0.256591         0.786592
 H        -1.646156        -0.811607         2.383646
 H        -4.032261         1.511965         1.293656
 H        -3.185323         3.084459         1.282515
 H        -0.452845         2.721628         0.450308
 H        -0.744070         2.599306         3.439118
 H        -1.115352         0.949332         3.998567
 H         1.003151         1.930483         1.946198
 H         0.958399         0.285441         2.915089
