19
Iteration:  2276
 O         0.560457        -0.134654         0.038960
 C        -0.267764         0.562427         1.012167
 C        -1.586827        -0.054765         1.546023
 C        -1.809187         1.501596         1.989198
 C        -2.967796         2.174710         1.237724
 O        -2.357546         1.733158         0.027260
 C        -1.087115         1.815635         0.709449
 C        -0.859135         1.617294         3.141641
 C         0.366497         1.095970         2.344546
 H         0.100813        -0.116451        -0.815318
 H        -2.238300        -0.308907         0.707864
 H        -1.625767        -0.829500         2.306081
 H        -3.992557         1.712301         1.529076
 H        -2.830698         3.263308         1.532311
 H        -0.439450         2.813062         0.478505
 H        -0.742803         2.604326         3.615403
 H        -1.303316         0.977278         3.902345
 H         1.144445         1.859467         2.100763
 H         1.052731         0.277591         2.728561
