19
Iteration:  4859charge 0 multiplicity 1
 O         0.492956        -0.044318        -0.036916
 C        -0.389281         0.428060         0.997086
 C        -1.663367        -0.062377         1.549287
 C        -1.861426         1.422912         1.999560
 C        -2.911052         2.062472         1.265103
 O        -2.088534         2.156276        -0.036471
 C        -0.941347         1.781209         0.776957
 C        -0.981549         1.621434         3.136652
 C         0.289159         0.939433         2.386875
 H         0.144358        -0.852599        -0.380177
 H        -2.479072        -0.388730         0.896234
 H        -1.454526        -0.902671         2.389398
 H        -3.767655         1.459002         0.954157
 H        -3.241110         3.168668         1.554774
 H        -0.129335         2.564426         0.745193
 H        -0.725243         2.678524         3.244517
 H        -1.201013         0.969688         3.953373
 H         1.232353         1.562990         2.356763
 H         0.497326         0.035989         3.029085
