19
Iteration:  3171
 O         0.641045        -0.113660         0.232441
 C        -0.365986         0.515560         0.990684
 C        -1.645588        -0.071851         1.494753
 C        -1.819097         1.520229         1.961556
 C        -3.036311         2.055205         1.300598
 O        -2.364053         1.976091        -0.020022
 C        -1.043800         1.811935         0.623795
 C        -0.729999         1.625927         3.166487
 C         0.322431         0.981502         2.267231
 H         0.231404        -0.147221        -0.611772
 H        -2.400519        -0.254414         0.765935
 H        -1.669912        -0.738112         2.351335
 H        -3.928694         1.357820         1.213064
 H        -3.363060         3.011256         1.594676
 H        -0.459985         2.589171         0.281691
 H        -0.444963         2.709113         3.317353
 H        -0.952056         1.117296         4.092697
 H         1.272497         1.582847         2.099094
 H         0.939752         0.104583         2.753831
