19
Iteration:  1581charge 0 multiplicity 1
 O         0.527537        -0.165808         0.043241
 C        -0.290311         0.492268         1.066255
 C        -1.545593        -0.079885         1.565385
 C        -1.779493         1.441089         1.960006
 C        -3.020833         2.099105         1.261074
 O        -2.326826         1.866103        -0.001027
 C        -1.010024         1.814295         0.720470
 C        -0.888634         1.723228         3.104132
 C         0.377797         1.117554         2.348228
 H        -0.217160        -0.396012        -0.604465
 H        -2.168717        -0.500804         0.744661
 H        -1.440080        -0.951354         2.278865
 H        -3.911518         1.531621         1.155265
 H        -3.263832         3.264430         1.455744
 H        -0.455780         2.723108         0.511373
 H        -0.804131         2.803959         3.463023
 H        -1.218057         1.299417         4.053500
 H         1.013788         1.841485         2.023126
 H         0.979218         0.274542         2.851685
