19
Iteration:  1196
 O         0.599117        -0.175448         0.110902
 C        -0.297358         0.459113         0.992127
 C        -1.601670        -0.054921         1.676895
 C        -1.810480         1.443521         1.978056
 C        -3.068775         2.011526         1.250574
 O        -2.408807         1.934748        -0.028289
 C        -1.133950         1.809898         0.645909
 C        -0.812713         1.650634         3.109308
 C         0.423001         1.199009         2.232608
 H         1.549553        -0.172810         0.351298
 H        -2.375320        -0.292183         0.908608
 H        -1.573229        -0.813701         2.548859
 H        -4.074843         1.664717         1.287158
 H        -3.166011         3.122603         1.284751
 H        -0.462886         2.737792         0.725205
 H        -0.680329         2.678599         3.608615
 H        -0.873569         0.829905         3.782883
 H         1.012872         1.876103         1.721956
 H         1.048667         0.381794         2.741310
