19
Iteration:  4874
 O         0.469503        -0.093730         0.062703
 C        -0.287716         0.525261         0.989458
 C        -1.657801        -0.149807         1.607477
 C        -1.869659         1.348933         1.892704
 C        -2.940467         2.103862         1.186327
 O        -2.131496         2.168993        -0.003156
 C        -0.942589         1.901770         0.752967
 C        -0.921299         1.587811         3.115955
 C         0.299444         0.866217         2.392290
 H        -0.180413        -0.617461        -0.483974
 H        -2.315946        -0.513965         0.808014
 H        -1.639994        -0.779549         2.471842
 H        -3.951036         1.619559         1.151506
 H        -3.058130         3.059962         1.652601
 H        -0.282446         2.872349         0.889085
 H        -0.831005         2.673039         3.152690
 H        -1.303799         1.096285         4.086388
 H         1.101517         1.592663         2.178375
 H         0.737915        -0.016738         2.804163
