19
Iteration:  2434charge 0 multiplicity 1
 O         0.487873        -0.178199         0.056877
 C        -0.269079         0.603364         0.976346
 C        -1.540423        -0.050362         1.536879
 C        -1.835207         1.455405         1.998486
 C        -3.083606         2.028566         1.236597
 O        -2.324054         1.915206        -0.041137
 C        -1.065337         1.841596         0.770817
 C        -0.834383         1.698890         3.124120
 C         0.463312         0.978698         2.384838
 H         0.098807        -0.085324        -0.799410
 H        -2.217338        -0.448658         0.760444
 H        -1.461451        -0.718813         2.393287
 H        -4.019396         1.539961         1.152099
 H        -2.971837         3.092001         1.476136
 H        -0.421211         2.833909         0.703406
 H        -0.783043         2.790128         3.317409
 H        -1.053000         1.301174         4.126066
 H         1.327672         1.564201         2.329408
 H         0.691064         0.052717         2.863986
