19
Iteration:  2334
 O         0.604233        -0.216705         0.090702
 C        -0.336147         0.506507         0.941487
 C        -1.582291        -0.024862         1.511566
 C        -1.830829         1.421736         1.980945
 C        -3.107411         1.912366         1.287896
 O        -2.329269         2.050825         0.013556
 C        -1.043220         1.862649         0.719830
 C        -0.760288         1.800414         3.103931
 C         0.372748         1.011855         2.381120
 H         0.243362        -0.616612        -0.712264
 H        -2.187071        -0.381622         0.708108
 H        -1.567870        -0.735353         2.303893
 H        -3.909967         1.149379         1.294513
 H        -3.590823         2.882553         1.771931
 H        -0.309001         2.861176         0.492703
 H        -0.594167         2.889039         3.138420
 H        -1.029320         1.520462         4.124124
 H         1.173339         1.551877         2.132115
 H         0.659824         0.039306         2.871416
