19
Iteration:  2153
 O         0.641564        -0.105388         0.092177
 C        -0.330037         0.629644         1.024165
 C        -1.634567         0.025409         1.607705
 C        -1.792896         1.573104         2.048100
 C        -3.034550         2.119944         1.222216
 O        -2.404377         1.712498        -0.054941
 C        -1.066220         1.834937         0.695126
 C        -0.815729         1.567572         3.117077
 C         0.398233         0.994129         2.330056
 H         0.166218        -0.184616        -0.772501
 H        -2.386036        -0.324828         0.847235
 H        -1.495694        -0.664392         2.519681
 H        -4.113209         1.617107         1.182443
 H        -2.912629         3.233639         1.342298
 H        -0.455178         2.893985         0.486791
 H        -0.558545         2.513343         3.637115
 H        -0.932901         0.782824         3.911445
 H         1.187041         1.746773         1.979108
 H         0.849823         0.122200         2.653023
