19
Iteration:  1848
 O         0.558713        -0.120367         0.107185
 C        -0.258763         0.574829         1.020770
 C        -1.586298        -0.027748         1.515394
 C        -1.792944         1.487459         1.940968
 C        -3.060515         1.917313         1.320171
 O        -2.379500         1.884650         0.008199
 C        -0.992466         1.852074         0.625870
 C        -0.822672         1.766834         3.098493
 C         0.356433         0.968159         2.411875
 H         0.081541        -0.054484        -0.779126
 H        -2.354694        -0.215576         0.792092
 H        -1.340377        -0.756343         2.255164
 H        -3.933218         1.350282         1.272325
 H        -3.385097         3.040049         1.538420
 H        -0.522208         2.772078         0.321390
 H        -0.562540         2.844299         3.079522
 H        -1.005442         1.300274         4.089033
 H         1.355031         1.437077         2.235291
 H         0.523574        -0.023927         3.063599
