19
Iteration:  2575charge 0 multiplicity 1
 O         0.551640        -0.118681         0.180441
 C        -0.303856         0.629297         0.929151
 C        -1.639331        -0.011433         1.597499
 C        -1.820924         1.448389         1.979946
 C        -3.090532         1.936784         1.213895
 O        -2.322283         2.018399         0.015813
 C        -1.003617         1.885942         0.721409
 C        -0.738049         1.703453         3.018578
 C         0.391422         0.865272         2.327111
 H         0.062719        -0.482885        -0.549605
 H        -2.409462        -0.353935         0.900014
 H        -1.393069        -0.699687         2.369028
 H        -3.845441         1.061203         1.116341
 H        -3.484921         2.852065         1.498638
 H        -0.637200         2.840561         0.857039
 H        -0.548255         2.815829         3.044157
 H        -0.960757         1.330670         4.025930
 H         1.344571         1.400614         2.242301
 H         0.500378        -0.252714         2.819365
