19
Iteration:  3884
 O         0.568243        -0.111366         0.031811
 C        -0.281292         0.551097         0.956795
 C        -1.704397         0.028521         1.461139
 C        -1.832467         1.511820         1.977608
 C        -3.025954         2.161412         1.240620
 O        -2.288921         1.984004         0.010619
 C        -0.970149         1.858991         0.671379
 C        -0.852298         1.522243         3.152803
 C         0.321342         0.843642         2.438929
 H         1.324584        -0.563888         0.518578
 H        -2.321585        -0.404638         0.669879
 H        -1.597781        -0.724147         2.207451
 H        -4.043163         1.673477         1.265108
 H        -3.258446         3.299954         1.350040
 H        -0.328782         2.881785         0.534681
 H        -0.561971         2.415012         3.667731
 H        -1.315090         0.846470         3.946063
 H         1.156892         1.422107         2.437475
 H         0.452970        -0.143168         2.837069
