19
Iteration:   375charge 0 multiplicity 1
 O         0.663850        -0.088051         0.215038
 C        -0.379364         0.559681         0.972530
 C        -1.610484         0.001405         1.698992
 C        -1.873709         1.405816         1.974635
 C        -3.091312         2.084574         1.195252
 O        -2.324155         1.851102        -0.008358
 C        -1.122954         1.831048         0.640183
 C        -0.774153         1.574790         3.129170
 C         0.446624         1.087155         2.200703
 H         0.211215        -0.262795        -0.603101
 H        -2.375329        -0.297457         1.027418
 H        -1.190980        -0.712440         2.445270
 H        -3.960288         1.374152         1.196694
 H        -3.221783         3.133997         1.447088
 H        -0.480218         2.812373         0.365426
 H        -0.673986         2.589730         3.470013
 H        -1.096140         0.918917         4.022595
 H         1.059637         1.960972         2.045765
 H         0.993772         0.129746         2.456022
