19
Iteration:  3648
 O         0.571897        -0.225964         0.067525
 C        -0.217408         0.488374         0.977275
 C        -1.626382        -0.060044         1.432545
 C        -1.800960         1.466629         1.872245
 C        -3.023036         2.183973         1.397135
 O        -2.369150         2.013555         0.049630
 C        -1.001164         1.849459         0.653606
 C        -0.939804         1.613716         3.081403
 C         0.309748         0.930904         2.403089
 H         1.423864         0.103931         0.306716
 H        -2.250548        -0.501306         0.599512
 H        -1.550280        -0.802438         2.274437
 H        -4.112902         1.676044         1.315678
 H        -3.113546         3.182973         1.796046
 H        -0.347335         2.756468         0.426138
 H        -0.561177         2.623725         3.305411
 H        -1.074581         1.101666         4.050839
 H         1.046805         1.717324         2.112995
 H         0.712181         0.250753         3.036978
