19
Iteration:  1250charge 0 multiplicity 1
 O         0.613512        -0.228373         0.076773
 C        -0.262720         0.536241         0.952386
 C        -1.590625         0.002780         1.562431
 C        -1.801962         1.467491         1.955487
 C        -3.069722         2.007487         1.369320
 O        -2.471089         1.851498        -0.044127
 C        -1.085030         1.842936         0.628869
 C        -0.827052         1.758779         3.072312
 C         0.424750         1.043236         2.444513
 H         1.193557         0.278990        -0.478622
 H        -2.215081        -0.446027         0.785465
 H        -1.475415        -0.738296         2.443666
 H        -3.865594         1.355679         1.370875
 H        -3.271615         3.073082         1.434887
 H        -0.537738         2.860071         0.577724
 H        -0.615023         2.913680         3.050901
 H        -1.002106         1.533459         4.153518
 H         1.313889         1.676162         2.313741
 H         0.572679        -0.002688         2.911899
