19
Iteration:  1132charge 0 multiplicity 1
 O         0.574407        -0.042314         0.030339
 C        -0.277976         0.495954         0.986992
 C        -1.555294        -0.019815         1.552034
 C        -1.801286         1.511033         1.996218
 C        -3.169841         2.016832         1.260375
 O        -2.397841         1.766007         0.021176
 C        -1.051198         1.836722         0.650922
 C        -0.738849         1.776980         3.094532
 C         0.394289         1.009851         2.400547
 H         0.299689        -1.031086         0.098444
 H        -2.197088        -0.417331         0.780717
 H        -1.211888        -0.835354         2.236481
 H        -4.146621         1.435714         1.280888
 H        -3.196243         3.105391         1.443372
 H        -0.606942         2.775921         0.533663
 H        -0.484947         2.848430         2.970986
 H        -0.907414         1.572246         4.095959
 H         1.228520         1.685836         2.269180
 H         0.633062         0.142065         3.075549
