19
Iteration:  1827
 O         0.526273        -0.189806         0.094703
 C        -0.259946         0.619784         0.973673
 C        -1.566433        -0.015152         1.568175
 C        -1.873848         1.409760         1.992487
 C        -3.044024         1.992023         1.216638
 O        -2.320921         1.878793        -0.037117
 C        -1.091497         1.899249         0.698904
 C        -0.820540         1.679268         3.187545
 C         0.430840         1.082432         2.353343
 H        -0.072396        -0.661362        -0.530800
 H        -2.193119        -0.230545         0.738336
 H        -1.437885        -0.790495         2.278929
 H        -3.875841         1.314027         1.335828
 H        -3.282865         3.160793         1.361399
 H        -0.525876         2.808381         0.449606
 H        -0.518190         2.717354         3.403755
 H        -1.046853         1.052310         4.093864
 H         1.282599         1.782208         2.279762
 H         0.925034         0.205712         2.692598
