19
Iteration:  2189
 O         0.548880        -0.219042         0.104588
 C        -0.294093         0.495999         1.016871
 C        -1.502909        -0.121202         1.541098
 C        -1.839527         1.407984         1.932828
 C        -3.014495         1.976964         1.280373
 O        -2.346009         2.048169        -0.006870
 C        -1.044874         1.817620         0.701256
 C        -0.820668         1.731898         3.104302
 C         0.374354         1.125819         2.342436
 H        -0.192012        -0.305079        -0.581036
 H        -2.328547        -0.257421         0.857058
 H        -1.427431        -0.906489         2.239756
 H        -4.005012         1.400284         1.256771
 H        -3.429445         2.965639         1.708142
 H        -0.410645         2.786985         0.579319
 H        -0.947711         2.828654         3.150984
 H        -0.898315         1.285750         4.078357
 H         1.065177         1.780342         2.041359
 H         0.876107         0.323134         2.988738
