19
Iteration:  2397
 O         0.688652        -0.071534         0.139609
 C        -0.402279         0.459113         0.938669
 C        -1.679023        -0.068116         1.595181
 C        -1.817599         1.435267         2.015688
 C        -2.938540         2.213981         1.292845
 O        -2.371564         1.878819        -0.027625
 C        -1.090692         1.750002         0.635785
 C        -0.819287         1.562442         3.228186
 C         0.371413         1.122453         2.255534
 H         0.461926        -0.356028        -0.715525
 H        -2.341387        -0.329773         0.800878
 H        -1.615832        -0.797204         2.382060
 H        -4.062895         1.883683         1.268078
 H        -3.089873         3.232974         1.424950
 H        -0.454399         2.527170         0.435491
 H        -0.753428         2.572285         3.582467
 H        -1.071171         0.772782         3.882010
 H         1.034369         1.953365         1.843880
 H         1.167767         0.311882         2.679598
