19
Iteration:  2828charge 0 multiplicity 1
 O         0.605294        -0.114389         0.156156
 C        -0.295814         0.561452         0.999055
 C        -1.648950        -0.061168         1.544714
 C        -1.843749         1.493638         1.945222
 C        -3.081825         1.990425         1.267016
 O        -2.339078         2.053256         0.052532
 C        -1.014724         1.795904         0.685011
 C        -0.780787         1.659645         2.976349
 C         0.392563         0.950117         2.373898
 H         0.150975        -0.590307        -0.519327
 H        -2.348843        -0.405663         0.814248
 H        -1.419451        -0.759335         2.331847
 H        -3.923670         1.183128         1.115572
 H        -3.487340         3.022809         1.616720
 H        -0.325833         2.747725         0.547767
 H        -0.525324         2.716634         3.119410
 H        -1.124519         1.247379         3.938071
 H         1.202367         1.561868         2.253099
 H         0.660191        -0.027325         2.864628
