19
Iteration:   632charge 0 multiplicity 1
 O         0.604487        -0.236911         0.136979
 C        -0.261662         0.522505         0.951898
 C        -1.623637        -0.012800         1.508774
 C        -1.795017         1.480321         1.960211
 C        -3.075136         2.031039         1.377033
 O        -2.429859         1.929705         0.010321
 C        -1.066957         1.824781         0.614209
 C        -0.871752         1.649690         3.087281
 C         0.464507         1.062829         2.332193
 H         1.347276         0.309100        -0.106592
 H        -2.282154        -0.438551         0.766054
 H        -1.602224        -0.668746         2.396363
 H        -3.929628         1.406911         1.307700
 H        -3.372402         3.062587         1.479037
 H        -0.508908         2.743357         0.264487
 H        -0.735955         2.697559         3.425615
 H        -1.114351         1.068285         3.979673
 H         1.014116         2.034957         2.102688
 H         0.976649         0.381369         2.960844
