19
Iteration:  1858charge 0 multiplicity 1
 O         0.621484        -0.094414         0.115701
 C        -0.273475         0.532313         0.988262
 C        -1.603520        -0.045078         1.558434
 C        -1.775000         1.478257         1.909682
 C        -3.070608         1.978106         1.306530
 O        -2.387404         1.890774        -0.002978
 C        -1.073980         1.853735         0.704798
 C        -0.791476         1.776645         3.022702
 C         0.328934         0.931303         2.388585
 H         0.279636         0.080123        -0.772004
 H        -2.291347        -0.494836         0.817872
 H        -1.562471        -0.771932         2.393338
 H        -3.764122         1.275109         1.564926
 H        -3.321753         3.054552         1.550521
 H        -0.477978         2.719302         0.521176
 H        -0.405566         2.802365         3.177253
 H        -1.191036         1.547599         4.022867
 H         1.281513         1.530251         2.357795
 H         0.653021        -0.157121         2.926200
