19
Iteration:  3286
 O         0.559929        -0.043062         0.101223
 C        -0.255496         0.608925         1.024019
 C        -1.574297        -0.018267         1.547878
 C        -1.843161         1.436876         1.961422
 C        -3.023664         2.149506         1.260799
 O        -2.396094         1.812321        -0.083300
 C        -1.031251         1.880707         0.634644
 C        -0.824004         1.631003         3.121045
 C         0.398374         0.885120         2.445807
 H        -0.039165        -0.607154        -0.342639
 H        -2.259098        -0.296708         0.709010
 H        -1.520993        -0.837789         2.304041
 H        -4.063753         1.678199         1.345128
 H        -3.096084         3.186319         1.749429
 H        -0.518401         2.912693         0.521330
 H        -0.506015         2.602553         3.217895
 H        -0.962588         1.146721         4.091270
 H         1.305909         1.423381         2.246079
 H         0.716463        -0.009924         2.833551
