19
Iteration:  3891charge 0 multiplicity 1
 O         0.552103        -0.137881         0.073381
 C        -0.298214         0.585431         0.981274
 C        -1.651386        -0.021233         1.394730
 C        -1.824590         1.499646         1.894145
 C        -3.022871         2.208112         1.273016
 O        -2.341800         1.973615         0.017067
 C        -0.958922         1.902476         0.705443
 C        -0.870446         1.504901         3.127057
 C         0.339803         0.814164         2.427823
 H         1.424306        -0.263767         0.555872
 H        -2.485000        -0.361032         0.744119
 H        -1.543167        -0.705549         2.273463
 H        -4.019575         1.639189         1.146898
 H        -3.070503         3.247401         1.505083
 H        -0.328935         2.685749         0.669952
 H        -0.560713         2.518938         3.465278
 H        -1.297022         1.032929         4.005718
 H         1.324358         1.433696         2.483345
 H         0.461271        -0.126725         2.963520
