19
Iteration:  2886
 O         0.588554        -0.104026         0.081994
 C        -0.306173         0.541246         1.056512
 C        -1.635781        -0.077487         1.600242
 C        -1.804859         1.497222         1.957922
 C        -2.967649         2.084877         1.316745
 O        -2.328599         1.912205        -0.033651
 C        -1.013212         1.817450         0.679608
 C        -0.939438         1.573649         3.124852
 C         0.427297         1.052492         2.284679
 H        -0.041162        -0.376689        -0.674748
 H        -2.236942        -0.400910         0.698232
 H        -1.739792        -0.814911         2.420536
 H        -4.036586         1.653706         1.373574
 H        -3.031222         3.176632         1.413814
 H        -0.423611         2.741882         0.512370
 H        -0.804014         2.588015         3.512579
 H        -1.297765         0.985480         3.925466
 H         1.205001         1.808843         2.025224
 H         0.965161         0.224410         2.687903
