19
Iteration:  3675charge 0 multiplicity 1
 O         0.558488        -0.213978         0.161687
 C        -0.284757         0.589377         0.948618
 C        -1.683244         0.006523         1.456594
 C        -1.806387         1.478461         1.974255
 C        -3.015023         2.073849         1.286185
 O        -2.332017         1.976497        -0.070017
 C        -1.073019         1.900321         0.697344
 C        -0.815133         1.626765         3.141094
 C         0.382884         0.879753         2.386516
 H         1.003715         0.360199        -0.443367
 H        -2.376710        -0.238021         0.680279
 H        -1.605192        -0.868565         2.078663
 H        -3.871787         1.510754         1.310368
 H        -3.283447         3.138837         1.636317
 H        -0.516990         2.791468         0.649621
 H        -0.492907         2.636259         3.483607
 H        -0.881715         0.982751         4.029287
 H         1.395762         1.372450         2.295253
 H         0.373601        -0.156589         3.035711
