19
Iteration:  1290charge 0 multiplicity 1
 O         0.530701        -0.132891         0.104041
 C        -0.325326         0.560522         0.978788
 C        -1.636421        -0.097400         1.687664
 C        -1.822630         1.377886         2.033085
 C        -3.051106         1.959546         1.181618
 O        -2.262339         1.891553        -0.085712
 C        -1.090426         1.839425         0.716068
 C        -0.767591         1.754150         3.143852
 C         0.440532         1.100177         2.278520
 H         0.087749         0.060300        -0.794080
 H        -2.441374        -0.404805         1.006175
 H        -1.487717        -0.694371         2.545548
 H        -3.960336         1.283563         1.472790
 H        -3.375787         3.044697         1.445195
 H        -0.585604         2.791681         0.730368
 H        -0.745469         2.817334         3.163144
 H        -0.958078         1.214354         4.112024
 H         1.236356         1.942246         1.929571
 H         0.812623         0.259620         2.772173
