19
Iteration:  2453charge 0 multiplicity 1
 O         0.548358        -0.205298         0.078831
 C        -0.280631         0.585079         0.975787
 C        -1.531666        -0.022006         1.559617
 C        -1.805133         1.462896         2.016651
 C        -3.081788         1.963053         1.262305
 O        -2.320436         1.970550        -0.012568
 C        -1.052814         1.986464         0.671032
 C        -0.743764         1.740863         3.116421
 C         0.283157         0.900976         2.381588
 H        -0.006871        -0.295524        -0.742634
 H        -2.220195        -0.327622         0.813771
 H        -1.385557        -0.869349         2.171700
 H        -3.770417         1.012898         1.093208
 H        -3.657060         2.860564         1.373703
 H        -0.532799         2.832593         0.692138
 H        -0.468313         2.781881         3.261919
 H        -0.934319         1.450031         4.121673
 H         1.252009         1.429606         2.240993
 H         0.467231        -0.131002         3.026829
