19
Iteration:   489
 O         0.634248        -0.219378         0.089921
 C        -0.360173         0.554445         0.971940
 C        -1.606738        -0.032019         1.546378
 C        -1.824723         1.469740         1.979647
 C        -3.002858         2.127393         1.332098
 O        -2.377575         1.833384        -0.008181
 C        -1.110690         1.779466         0.663495
 C        -0.855584         1.623856         3.124671
 C         0.398630         1.149244         2.235674
 H         1.432529         0.181259         0.386586
 H        -2.268399        -0.328201         0.712290
 H        -1.636475        -0.809199         2.309840
 H        -3.898863         1.558370         1.519401
 H        -3.049784         3.196502         1.591102
 H        -0.429009         2.712704         0.594398
 H        -0.803567         2.564212         3.731871
 H        -1.182828         0.819610         3.745502
 H         0.934727         2.100486         1.999565
 H         0.970431         0.496112         2.760182
