19
Iteration:  2214charge 0 multiplicity 1
 O         0.712283        -0.214141         0.169398
 C        -0.339492         0.543286         0.962154
 C        -1.613294        -0.132285         1.594714
 C        -1.929657         1.427261         1.923059
 C        -3.143693         1.949874         1.302622
 O        -2.327737         2.137109         0.049593
 C        -1.080153         1.857000         0.731535
 C        -0.794750         1.755411         3.001937
 C         0.475870         0.994034         2.261487
 H         0.151806        -0.683646        -0.454114
 H        -2.322748        -0.526280         0.887291
 H        -1.513256        -0.791421         2.446306
 H        -3.938030         1.304313         1.145936
 H        -3.609458         2.841810         1.699708
 H        -0.453096         2.672311         0.660036
 H        -0.721154         2.841938         2.937270
 H        -0.905980         1.442287         4.035937
 H         1.199410         1.736291         1.964236
 H         0.902621         0.057242         2.759817
