19
Iteration:  1133
 O         0.569984        -0.047469         0.028155
 C        -0.270604         0.500396         0.985720
 C        -1.549451        -0.022526         1.545773
 C        -1.801000         1.510371         2.005346
 C        -3.172455         2.019089         1.265018
 O        -2.398390         1.769550         0.017247
 C        -1.051629         1.833518         0.655981
 C        -0.748802         1.785018         3.088814
 C         0.388734         1.005986         2.401461
 H         0.305933        -1.017730         0.132372
 H        -2.166460        -0.416568         0.788007
 H        -1.225309        -0.837166         2.221584
 H        -4.142474         1.413847         1.303170
 H        -3.193020         3.100312         1.400552
 H        -0.585841         2.763067         0.541931
 H        -0.490781         2.838906         2.990600
 H        -0.901792         1.579130         4.118772
 H         1.295871         1.695605         2.267167
 H         0.653157         0.136856         3.040762
