19
Iteration:  1311
 O         0.527805        -0.145431         0.045085
 C        -0.278594         0.533089         1.032721
 C        -1.488781        -0.040748         1.600110
 C        -1.893563         1.503529         1.974079
 C        -3.055168         2.047464         1.226899
 O        -2.354338         1.813071         0.013963
 C        -1.006182         1.820519         0.721494
 C        -0.851731         1.661018         3.102608
 C         0.432891         1.138488         2.328281
 H        -0.133869        -0.762577        -0.314820
 H        -2.116820        -0.379184         0.755753
 H        -1.415919        -0.686661         2.433536
 H        -4.163955         1.577072         1.251636
 H        -3.295965         3.159413         1.346405
 H        -0.447703         2.734980         0.667491
 H        -0.757595         2.691522         3.292177
 H        -1.070750         1.027261         3.991946
 H         1.102210         1.934901         1.856665
 H         1.056345         0.448247         2.853782
