19
Iteration:   851
 O         0.639893        -0.169034         0.054922
 C        -0.258153         0.519283         0.962514
 C        -1.634282        -0.024206         1.635939
 C        -1.795910         1.552706         2.019259
 C        -3.062751         2.063767         1.281562
 O        -2.427641         1.752430        -0.021136
 C        -1.085637         1.789099         0.711969
 C        -0.848290         1.705004         3.115920
 C         0.408296         1.063783         2.296615
 H         0.797195         0.464565        -0.627231
 H        -2.473544        -0.270362         0.933652
 H        -1.531920        -0.649913         2.563196
 H        -4.043410         1.513931         1.336756
 H        -3.127192         3.208137         1.413330
 H        -0.366567         2.636666         0.469564
 H        -0.585597         2.761902         3.330779
 H        -1.131711         1.165024         4.113309
 H         1.150512         1.896743         1.917539
 H         1.068362         0.283104         2.636761
