19
Iteration:   430
 O         0.485279        -0.140606        -0.038223
 C        -0.263572         0.572810         0.990468
 C        -1.530890        -0.042942         1.460573
 C        -1.852515         1.379587         1.933883
 C        -3.007839         1.971333         1.332623
 O        -2.341633         1.851747         0.069443
 C        -0.985757         1.879842         0.712607
 C        -0.857171         1.838968         3.031506
 C         0.303897         1.038168         2.441687
 H         0.916746        -0.883970         0.444160
 H        -2.095313        -0.417899         0.614443
 H        -1.366129        -0.756916         2.283816
 H        -3.941388         1.370073         1.446876
 H        -3.318858         2.931469         1.671250
 H        -0.483153         2.919701         0.551423
 H        -0.622355         2.904779         3.032968
 H        -1.138979         1.531334         4.102509
 H         1.249784         1.602945         2.359490
 H         0.657168         0.157927         3.056529
