19
Iteration:  4741
 O         0.455665        -0.277107         0.133235
 C        -0.336222         0.554646         0.926257
 C        -1.567920        -0.067348         1.393292
 C        -1.857668         1.407653         1.997622
 C        -3.007202         2.095106         1.218226
 O        -2.148283         2.156724         0.004188
 C        -0.984784         1.960751         0.736265
 C        -0.915717         1.543238         3.271058
 C         0.274804         0.917079         2.370221
 H         0.891087         0.063378        -0.705736
 H        -2.227596        -0.332809         0.582116
 H        -1.502460        -0.943879         2.040971
 H        -3.960906         1.647114         0.916219
 H        -3.160967         3.047991         1.621977
 H        -0.363438         2.853208         0.807185
 H        -0.666968         2.582970         3.301400
 H        -1.189475         1.015964         4.169712
 H         1.211536         1.539149         2.357488
 H         0.621168        -0.087266         2.672012
