19
Iteration:  1339
 O         0.637144        -0.146284         0.119281
 C        -0.324812         0.596512         0.952576
 C        -1.555523        -0.004305         1.550367
 C        -1.816058         1.484175         1.970279
 C        -3.027721         2.052012         1.330906
 O        -2.476992         1.823261        -0.034338
 C        -1.081538         1.843224         0.526347
 C        -0.824126         1.628905         3.131919
 C         0.450506         1.083528         2.391310
 H         0.527384        -1.002212         0.475804
 H        -2.292902        -0.309065         0.773352
 H        -1.504584        -0.766580         2.405778
 H        -4.023869         1.632236         1.386842
 H        -2.891160         3.124784         1.543655
 H        -0.540631         2.841386         0.395748
 H        -0.658424         2.758699         3.387860
 H        -1.199016         1.122921         4.027155
 H         1.091486         1.858943         2.087801
 H         0.913569         0.089079         2.818256
