19
Iteration:  4074
 O         0.513510        -0.209465         0.127179
 C        -0.284951         0.520784         0.988006
 C        -1.618748         0.007018         1.310247
 C        -1.816482         1.484761         1.961196
 C        -2.978543         2.127624         1.331579
 O        -2.303701         2.106793        -0.029161
 C        -0.945139         1.848308         0.733025
 C        -0.926452         1.499818         3.150203
 C         0.275188         0.925262         2.401239
 H         1.257142        -0.584276         0.563377
 H        -2.221680        -0.110178         0.374114
 H        -1.621713        -0.947944         1.846301
 H        -3.817522         1.558960         1.136344
 H        -3.205172         3.265342         1.681848
 H        -0.237293         2.745058         0.529430
 H        -0.734565         2.525162         3.682763
 H        -1.205326         0.829039         3.974661
 H         0.973214         1.706843         2.086621
 H         0.827071         0.087467         2.959604
