19
Iteration:  1323charge 0 multiplicity 1
 O         0.517120        -0.144670         0.088561
 C        -0.195080         0.568872         1.014173
 C        -1.548993        -0.051498         1.555828
 C        -1.745505         1.440685         1.954340
 C        -3.072693         2.130642         1.263117
 O        -2.391707         1.801686        -0.044190
 C        -1.094720         1.819744         0.666390
 C        -0.845116         1.670153         3.118043
 C         0.407062         1.160278         2.328880
 H         0.184664        -1.015037        -0.066056
 H        -2.218760        -0.467951         0.808636
 H        -1.473102        -0.769622         2.337172
 H        -3.866176         1.393382         1.654250
 H        -3.132620         3.261740         1.453845
 H        -0.661883         2.754968         0.415363
 H        -0.850798         2.581253         3.639717
 H        -1.037399         0.952536         3.961582
 H         1.268391         1.965046         2.297589
 H         0.757291         0.357429         2.883308
