19
Iteration:   960
 O         0.459360        -0.131129        -0.013361
 C        -0.221997         0.607391         0.931574
 C        -1.496300        -0.080895         1.614535
 C        -1.845634         1.444403         1.988340
 C        -3.088758         2.075169         1.239946
 O        -2.409932         1.724978         0.034096
 C        -1.043037         1.815583         0.684456
 C        -0.849417         1.763749         3.124722
 C         0.465497         1.129589         2.341769
 H         0.701147        -1.003836         0.292713
 H        -2.103324        -0.585990         0.886409
 H        -1.246308        -0.809915         2.390037
 H        -4.141559         1.752176         1.365839
 H        -3.185734         3.170042         1.350009
 H        -0.327973         2.728345         0.572791
 H        -0.801448         2.844052         3.369465
 H        -0.977780         1.255869         4.176141
 H         1.142079         2.021995         2.102563
 H         0.933184         0.451682         2.961865
