19
Iteration:  4927
 O         0.646502        -0.207503         0.304633
 C        -0.375898         0.506816         0.911954
 C        -1.776134         0.023915         1.342493
 C        -1.738036         1.532216         1.895316
 C        -2.937518         2.194702         1.381045
 O        -2.298737         2.029960        -0.001471
 C        -0.981882         1.901610         0.628592
 C        -0.883885         1.444347         3.105205
 C         0.292590         0.869578         2.395958
 H         0.731562         0.190268        -0.601104
 H        -2.622902        -0.315623         0.690778
 H        -1.507845        -0.774062         2.149252
 H        -3.830289         1.543661         1.636008
 H        -3.059934         3.299426         1.757419
 H        -0.304879         2.723112         0.246612
 H        -0.887410         2.424010         3.456647
 H        -1.379991         0.802690         3.799720
 H         1.125764         1.607527         2.122775
 H         0.819022         0.052647         2.881765
