19
Iteration:  4970charge 0 multiplicity 1
 O         0.570429        -0.140344         0.108239
 C        -0.279805         0.512907         0.976942
 C        -1.680988        -0.145194         1.447333
 C        -1.920972         1.359244         1.958144
 C        -3.035880         2.258447         1.217042
 O        -2.180076         2.087119        -0.038019
 C        -1.007808         1.916888         0.837481
 C        -0.891897         1.560575         3.092897
 C         0.391734         0.854918         2.406007
 H         0.087049        -0.740469        -0.543323
 H        -2.299127        -0.200369         0.529680
 H        -1.638565        -0.868521         2.294259
 H        -4.048535         1.821838         1.093481
 H        -3.061134         3.393376         1.485436
 H        -0.557167         2.772269         1.227900
 H        -0.680200         2.559844         3.212057
 H        -1.115442         1.062162         3.961728
 H         1.248874         1.634392         2.323509
 H         0.767495        -0.002497         2.972420
