19
Iteration:  2063charge 0 multiplicity 1
 O         0.575360        -0.209385         0.199016
 C        -0.293727         0.492028         1.000860
 C        -1.659107        -0.023007         1.555031
 C        -1.776353         1.425620         1.956456
 C        -3.122402         1.957952         1.306189
 O        -2.355004         2.019077         0.001753
 C        -1.035731         1.904218         0.634517
 C        -0.786842         1.603316         3.117437
 C         0.467895         1.155926         2.255380
 H         0.062935        -0.613217        -0.458325
 H        -2.318779        -0.486556         0.800230
 H        -1.560922        -0.605091         2.526848
 H        -3.847430         1.243146         0.886885
 H        -3.546376         2.979746         1.413115
 H        -0.337681         2.874212         0.655424
 H        -0.849880         2.634876         3.440371
 H        -1.106538         0.950743         3.966846
 H         1.256930         1.844544         1.951090
 H         1.035643         0.423030         2.612883
