19
Iteration:  1130charge 0 multiplicity 1
 O         0.581197        -0.038065         0.035382
 C        -0.290458         0.496992         0.989847
 C        -1.564761        -0.018809         1.565444
 C        -1.803387         1.508860         1.978454
 C        -3.158626         2.011741         1.252681
 O        -2.397473         1.760148         0.026714
 C        -1.055284         1.838090         0.645395
 C        -0.721314         1.766437         3.097870
 C         0.402850         1.013089         2.399159
 H         0.317773        -1.007415         0.016989
 H        -2.268635        -0.415032         0.768821
 H        -1.219688        -0.820945         2.274927
 H        -4.127680         1.492765         1.244644
 H        -3.222768         3.110133         1.518206
 H        -0.621344         2.840582         0.503179
 H        -0.481024         2.862325         2.951787
 H        -0.934306         1.538724         4.112004
 H         1.139012         1.676486         2.263950
 H         0.605870         0.162713         3.114961
