19
Iteration:  3287charge 0 multiplicity 1
 O         0.558587        -0.045460         0.103036
 C        -0.254266         0.606759         1.029653
 C        -1.572191        -0.020978         1.539547
 C        -1.839796         1.427061         1.964632
 C        -3.026843         2.151517         1.268670
 O        -2.390274         1.812510        -0.080372
 C        -1.035652         1.880850         0.633008
 C        -0.832439         1.639868         3.109824
 C         0.397852         0.887082         2.444379
 H        -0.036555        -0.611040        -0.364495
 H        -2.264507        -0.272617         0.726591
 H        -1.502064        -0.830632         2.292483
 H        -4.027567         1.679692         1.332829
 H        -3.102671         3.195053         1.777300
 H        -0.503995         2.921342         0.535642
 H        -0.491945         2.632154         3.207832
 H        -0.969983         1.151422         4.082459
 H         1.279338         1.404158         2.257148
 H         0.722354        -0.015778         2.822349
