19
Iteration:  1785charge 0 multiplicity 1
 O         0.703626        -0.141684         0.175800
 C        -0.292519         0.515587         0.978519
 C        -1.643329        -0.103357         1.574068
 C        -1.802216         1.443089         2.035470
 C        -3.029030         2.089731         1.291982
 O        -2.411711         1.982193        -0.060944
 C        -1.106053         1.722973         0.604876
 C        -0.817945         1.605311         3.142201
 C         0.385274         1.157637         2.264501
 H         0.031102        -0.558020        -0.483008
 H        -2.378414        -0.390394         0.856268
 H        -1.583311        -0.802834         2.395953
 H        -4.054694         1.607775         1.200400
 H        -2.901134         3.106390         1.661970
 H        -0.443818         2.660216         0.533471
 H        -0.834155         2.687309         3.349631
 H        -1.070686         1.020432         4.093333
 H         1.101904         1.987115         2.100218
 H         0.971475         0.452149         2.667422
