19
Iteration:  3466
 O         0.451093        -0.284150         0.152499
 C        -0.266912         0.508546         1.015565
 C        -1.540497        -0.030252         1.358328
 C        -1.825785         1.454382         2.043142
 C        -3.025626         2.032924         1.286950
 O        -2.352974         1.975323        -0.030165
 C        -1.042933         1.921948         0.691889
 C        -0.848199         1.633781         3.145182
 C         0.403946         1.073173         2.337197
 H         1.272887         0.150497        -0.234773
 H        -2.232284        -0.222061         0.529293
 H        -1.495309        -0.883761         2.002378
 H        -3.979037         1.563982         1.350635
 H        -3.250220         3.183557         1.650649
 H        -0.314290         2.888180         0.556811
 H        -0.722700         2.697242         3.569014
 H        -1.112020         0.935360         3.920865
 H         1.156231         1.756895         2.218556
 H         0.686860         0.122045         2.852793
