19
Iteration:  3710
 O         0.517871        -0.113396         0.002768
 C        -0.287212         0.485794         1.023199
 C        -1.662770        -0.042414         1.592383
 C        -1.860331         1.457431         2.010335
 C        -3.014296         2.103562         1.176053
 O        -2.182714         2.014260        -0.033875
 C        -1.013389         1.823734         0.789879
 C        -0.903381         1.617598         3.158259
 C         0.390853         0.960929         2.329047
 H         0.039349        -0.357722        -0.782580
 H        -2.430375        -0.299829         0.843939
 H        -1.479213        -0.791635         2.340838
 H        -3.799825         1.421285         1.111423
 H        -3.329942         3.095701         1.583503
 H        -0.412874         2.709162         0.678561
 H        -0.786381         2.655605         3.419355
 H        -1.156765         0.983494         4.065969
 H         1.211872         1.646844         2.241713
 H         0.828742         0.039145         2.955135
