19
Iteration:  4736
 O         0.468700        -0.293188         0.095096
 C        -0.298551         0.562443         0.907671
 C        -1.591674        -0.053704         1.425201
 C        -1.839967         1.421962         1.994116
 C        -3.013604         2.085962         1.201608
 O        -2.155737         2.149996         0.000409
 C        -0.974972         1.938604         0.741461
 C        -0.935418         1.554080         3.270241
 C         0.296910         0.914667         2.381875
 H         0.753965         0.156593        -0.684877
 H        -2.300034        -0.156082         0.533613
 H        -1.587049        -1.001316         2.078402
 H        -3.956315         1.521571         1.044228
 H        -3.324252         3.139548         1.607117
 H        -0.382185         3.007627         0.687324
 H        -0.660460         2.642650         3.549315
 H        -1.178635         0.931966         4.175311
 H         1.241108         1.460263         2.508273
 H         0.511180        -0.108537         2.820011
