19
Iteration:   763
 O         0.589335        -0.133905         0.094143
 C        -0.322159         0.529072         1.058039
 C        -1.576750        -0.129523         1.591149
 C        -1.777147         1.391081         1.946748
 C        -3.035813         2.034752         1.332053
 O        -2.428143         1.996495        -0.027813
 C        -1.092631         1.788938         0.601675
 C        -0.812062         1.744051         3.103341
 C         0.346426         1.043840         2.309953
 H         1.352023        -0.502228         0.493612
 H        -2.295392        -0.409174         0.743094
 H        -1.569187        -0.811830         2.451255
 H        -3.958969         1.473380         1.169549
 H        -3.153061         3.117516         1.557719
 H        -0.586340         2.663696         0.365387
 H        -0.531685         2.818075         3.092775
 H        -0.943424         1.258984         4.125746
 H         1.134524         1.769596         1.825147
 H         1.039607         0.384318         2.709884
