19
Iteration:  1422charge 0 multiplicity 1
 O         0.438430        -0.270975         0.077517
 C        -0.215450         0.590321         1.012049
 C        -1.552418         0.016663         1.553892
 C        -1.803715         1.486292         2.028902
 C        -3.028284         1.984554         1.236206
 O        -2.367101         1.859160        -0.112714
 C        -1.027040         1.900464         0.661036
 C        -0.870487         1.649644         3.174043
 C         0.449681         1.076364         2.399961
 H         0.608039         0.176955        -0.789522
 H        -2.324939        -0.350432         0.954936
 H        -1.436388        -0.616084         2.405417
 H        -4.080598         1.548439         1.132939
 H        -3.257600         3.010571         1.573247
 H        -0.595501         2.876459         0.665205
 H        -0.800759         2.633323         3.522082
 H        -1.053534         1.012915         4.058053
 H         1.267616         1.848607         2.194178
 H         0.937750         0.377553         2.961952
