19
Iteration:  3671
 O         0.574578        -0.237482         0.154557
 C        -0.288815         0.594784         0.906610
 C        -1.668123         0.006469         1.451919
 C        -1.803796         1.487747         2.001477
 C        -2.980927         2.080645         1.314744
 O        -2.356563         1.984469        -0.044070
 C        -1.054210         1.874866         0.679604
 C        -0.860437         1.640345         3.137698
 C         0.381046         0.864356         2.397398
 H         1.089080         0.456134        -0.359486
 H        -2.379401        -0.141883         0.610982
 H        -1.643735        -0.916474         2.094074
 H        -3.976907         1.444090         1.334964
 H        -3.248444         3.112719         1.438231
 H        -0.501532         2.823931         0.637049
 H        -0.513134         2.649342         3.449859
 H        -1.020438         1.078725         4.046010
 H         1.374367         1.377993         2.334165
 H         0.467327        -0.038959         2.884993
