19
Iteration:  2221
 O         0.711067        -0.176318         0.213899
 C        -0.293641         0.489848         0.971593
 C        -1.588183        -0.087317         1.585218
 C        -1.876361         1.392512         1.937821
 C        -3.194584         2.008135         1.259230
 O        -2.374912         2.123094         0.035055
 C        -1.092607         1.870877         0.713425
 C        -0.732439         1.697019         3.014369
 C         0.414273         0.979499         2.241547
 H         0.204737        -0.668573        -0.389589
 H        -2.483593        -0.474993         1.057987
 H        -1.366992        -0.787312         2.382490
 H        -3.956309         1.110763         1.208952
 H        -3.538105         3.040945         1.688026
 H        -0.391060         2.871708         0.574215
 H        -0.726477         2.810483         2.998583
 H        -0.896213         1.441307         4.059541
 H         1.192656         1.635067         1.892154
 H         0.785212         0.061947         2.781544
