19
Iteration:  1880
 O         0.736093        -0.056973         0.161814
 C        -0.283467         0.522794         0.996824
 C        -1.656010        -0.069653         1.622933
 C        -1.873874         1.388234         1.969111
 C        -3.112247         2.109215         1.259005
 O        -2.408571         1.907919        -0.012674
 C        -1.120993         1.787388         0.688275
 C        -0.771389         1.717883         3.063754
 C         0.390958         0.966874         2.282490
 H         0.397875        -0.006089        -0.774952
 H        -2.491843        -0.420042         1.000198
 H        -1.363635        -0.858897         2.317959
 H        -4.050223         1.665991         1.230288
 H        -3.023604         3.160630         1.541788
 H        -0.556450         2.638360         0.408965
 H        -0.503619         2.790236         3.177752
 H        -0.779270         1.385927         4.109294
 H         1.383735         1.390978         1.999925
 H         0.704381        -0.044504         2.930168
