19
Iteration:  4385charge 0 multiplicity 1
 O         0.572000        -0.143464         0.054613
 C        -0.291683         0.524053         0.968948
 C        -1.642154        -0.052441         1.423118
 C        -1.861562         1.491365         1.999990
 C        -3.041575         2.143466         1.215388
 O        -2.262167         2.121804        -0.057219
 C        -1.041392         1.931752         0.738818
 C        -0.814198         1.525349         3.164612
 C         0.341359         0.815783         2.443334
 H         0.803341        -1.035940         0.409282
 H        -2.314274        -0.310120         0.560543
 H        -1.767236        -0.856468         2.203026
 H        -3.983804         1.631437         1.053385
 H        -3.301913         3.173106         1.516663
 H        -0.428624         2.741438         0.679592
 H        -0.581066         2.544148         3.511075
 H        -1.193246         1.029639         4.117383
 H         1.247539         1.465891         2.428808
 H         0.613963        -0.185477         3.014575
