19
Iteration:   840
 O         0.620157        -0.096608         0.107258
 C        -0.292190         0.507964         0.986176
 C        -1.708460         0.054639         1.684210
 C        -1.836723         1.475114         1.973065
 C        -3.069016         2.027285         1.250223
 O        -2.347470         1.772729         0.007452
 C        -1.041675         1.814417         0.634371
 C        -0.768781         1.672916         3.127554
 C         0.435151         1.031372         2.254777
 H         0.413976         0.199813        -0.828247
 H        -2.424777        -0.511596         1.040717
 H        -1.578223        -0.579081         2.595799
 H        -4.024450         1.428815         1.362925
 H        -3.384039         3.130079         1.324643
 H        -0.683640         2.810039         0.270994
 H        -0.572191         2.721208         3.451305
 H        -0.957612         1.013456         4.074782
 H         1.080099         1.978985         1.987010
 H         0.986877         0.367753         2.874523
