19
Iteration:  2075charge 0 multiplicity 1
 O         0.566156        -0.269092         0.195149
 C        -0.247913         0.558651         1.000831
 C        -1.547766        -0.084958         1.557547
 C        -1.824910         1.400607         1.931072
 C        -3.099488         1.936993         1.264308
 O        -2.348594         2.111833        -0.005440
 C        -1.074315         1.862310         0.683931
 C        -0.852998         1.688601         3.079790
 C         0.457988         1.093524         2.273231
 H        -0.016392        -0.541944        -0.590612
 H        -2.298203        -0.340707         0.780690
 H        -1.558001        -0.916620         2.343142
 H        -3.973544         1.232588         1.465231
 H        -3.470905         2.909735         1.690621
 H        -0.474615         2.867878         0.611241
 H        -0.761886         2.763398         3.269070
 H        -0.786732         1.168200         4.035059
 H         1.067497         1.895312         1.949040
 H         0.904062         0.401860         2.836450
