19
Iteration:  4183charge 0 multiplicity 1
 O         0.619519        -0.131343         0.220759
 C        -0.326487         0.578816         0.937113
 C        -1.647917        -0.019760         1.390736
 C        -1.821994         1.512105         1.982935
 C        -3.025494         2.196174         1.228813
 O        -2.277410         2.079582         0.007154
 C        -0.974719         1.893421         0.659254
 C        -0.888218         1.431505         3.122054
 C         0.273024         0.814419         2.422034
 H         0.180776        -0.819305        -0.370754
 H        -2.400135        -0.340370         0.646989
 H        -1.445872        -0.783019         2.158319
 H        -4.028135         1.848931         1.227403
 H        -3.109889         3.205422         1.380471
 H        -0.406820         2.725558         0.540386
 H        -0.519577         2.449310         3.514333
 H        -1.040190         0.844361         4.024119
 H         1.337967         1.389232         2.432693
 H         0.736329        -0.170597         2.798759
