19
Iteration:  1397
 O         0.473050        -0.197896         0.068682
 C        -0.289656         0.583525         1.028897
 C        -1.518202        -0.134993         1.578273
 C        -1.859976         1.474980         2.017507
 C        -3.029785         2.048217         1.243641
 O        -2.332106         1.913342         0.003880
 C        -1.024690         1.792340         0.668528
 C        -0.850593         1.728693         3.038690
 C         0.353417         1.063527         2.321940
 H         1.337212         0.294896        -0.176972
 H        -2.172811        -0.599124         0.793477
 H        -1.499984        -0.756135         2.479266
 H        -4.067798         1.480650         1.173635
 H        -3.353377         2.995312         1.707611
 H        -0.485119         2.775198         0.750382
 H        -0.567355         2.804901         3.086844
 H        -1.058332         1.492710         4.110624
 H         1.272261         1.683282         2.236252
 H         0.801222         0.090274         2.816089
