19
Iteration:  3224charge 0 multiplicity 1
 O         0.554391        -0.245589         0.172012
 C        -0.296866         0.529941         0.976166
 C        -1.552570        -0.151727         1.503095
 C        -1.862948         1.381162         1.941472
 C        -3.038767         2.088271         1.310833
 O        -2.364594         2.057817        -0.035374
 C        -1.078180         1.807686         0.684557
 C        -0.808667         1.700112         3.115059
 C         0.438630         1.079024         2.358189
 H         0.271115        -0.064579        -0.704391
 H        -2.176438        -0.274451         0.633344
 H        -1.414920        -1.051898         2.095537
 H        -3.939960         1.618607         1.203382
 H        -3.170896         3.122840         1.616082
 H        -0.606579         2.791511         0.741968
 H        -0.844769         2.865624         3.303101
 H        -1.065614         1.136563         4.060017
 H         1.240111         1.772104         1.998974
 H         0.898706         0.261009         3.108659
