19
Iteration:   540
 O         0.520578        -0.192375         0.122136
 C        -0.251571         0.543026         0.993755
 C        -1.530514        -0.061858         1.632910
 C        -1.816773         1.407179         1.963330
 C        -3.112689         1.913210         1.216564
 O        -2.368072         2.001046        -0.016333
 C        -1.058898         1.884358         0.678480
 C        -0.780441         1.735369         3.075732
 C         0.364130         1.015964         2.283427
 H         1.011306         0.418129        -0.474417
 H        -2.365693        -0.389840         0.964498
 H        -1.450198        -0.650919         2.537611
 H        -3.901069         1.120725         1.298844
 H        -3.437541         2.886121         1.587487
 H        -0.463260         2.784390         0.619245
 H        -0.570109         2.803405         3.234555
 H        -0.985916         1.317720         4.117324
 H         1.252891         1.727731         2.194972
 H         0.541980         0.183226         3.004291
