19
Iteration:   542charge 0 multiplicity 1
 O         0.542132        -0.191603         0.110090
 C        -0.280905         0.542036         0.975446
 C        -1.549525        -0.071673         1.649391
 C        -1.820833         1.416343         1.969539
 C        -3.117183         1.910247         1.213935
 O        -2.359105         1.997429        -0.008624
 C        -1.052373         1.884075         0.675222
 C        -0.778628         1.739462         3.092235
 C         0.367394         1.000748         2.285437
 H         0.978079         0.448856        -0.431519
 H        -2.355726        -0.361408         0.963019
 H        -1.461545        -0.633801         2.554695
 H        -3.895700         1.129909         1.246394
 H        -3.510045         2.848174         1.557845
 H        -0.372423         2.821365         0.588973
 H        -0.573835         2.834898         3.230642
 H        -0.992947         1.373016         4.128781
 H         1.254255         1.753914         2.185094
 H         0.617566         0.221704         2.926684
