19
Iteration:  1421charge 0 multiplicity 1
 O         0.435801        -0.269331         0.077148
 C        -0.210817         0.586343         1.007191
 C        -1.549582         0.016549         1.553892
 C        -1.797677         1.481543         2.029055
 C        -3.031316         1.985858         1.242853
 O        -2.364519         1.860578        -0.113990
 C        -1.032088         1.902566         0.666533
 C        -0.873175         1.655654         3.164384
 C         0.446610         1.073072         2.396844
 H         0.622156         0.177888        -0.750793
 H        -2.338882        -0.374810         0.975998
 H        -1.413400        -0.635394         2.394536
 H        -4.116044         1.544092         1.121131
 H        -3.249517         3.026757         1.545182
 H        -0.580722         2.896495         0.666794
 H        -0.831678         2.635235         3.550426
 H        -1.040381         1.037410         4.068692
 H         1.273901         1.846856         2.185705
 H         0.943359         0.347563         3.010530
