19
Iteration:   544charge 0 multiplicity 1
 O         0.566180        -0.192903         0.097190
 C        -0.318618         0.539989         0.954316
 C        -1.573953        -0.078651         1.663797
 C        -1.825789         1.433097         1.978407
 C        -3.118782         1.903798         1.216007
 O        -2.347102         1.992625        -0.000919
 C        -1.044115         1.882696         0.672580
 C        -0.779757         1.747051         3.110996
 C         0.376041         0.994321         2.290606
 H         0.968486         0.516772        -0.414817
 H        -2.329218        -0.353650         0.960085
 H        -1.465578        -0.654306         2.587708
 H        -3.893303         1.147171         1.165953
 H        -3.609401         2.839860         1.522064
 H        -0.311545         2.824932         0.554063
 H        -0.587704         2.849341         3.211652
 H        -0.996228         1.427164         4.115734
 H         1.214091         1.730526         2.169518
 H         0.756435         0.193046         2.857180
