19
Iteration:  4871charge 0 multiplicity 1
 O         0.469756        -0.078524         0.041690
 C        -0.309528         0.525954         1.005804
 C        -1.662947        -0.117309         1.616199
 C        -1.838630         1.332903         1.903654
 C        -2.926653         2.088516         1.191171
 O        -2.117487         2.172082        -0.012914
 C        -0.932413         1.873218         0.773125
 C        -0.942103         1.575613         3.092767
 C         0.275637         0.877259         2.367805
 H        -0.146047        -0.667528        -0.452905
 H        -2.353485        -0.438636         0.833458
 H        -1.583186        -0.859999         2.553275
 H        -3.907210         1.560249         1.194141
 H        -3.090089         3.134897         1.726514
 H        -0.243846         2.809664         0.827053
 H        -0.946854         2.648461         3.258598
 H        -1.275233         1.250341         4.048157
 H         1.123071         1.629878         2.195593
 H         0.670345        -0.039220         2.856209
