19
Iteration:  3210
 O         0.615596        -0.320449         0.141074
 C        -0.187399         0.474971         1.022332
 C        -1.497653        -0.119024         1.490651
 C        -1.851707         1.357512         1.985620
 C        -3.147520         2.098900         1.300427
 O        -2.393366         2.111049         0.013764
 C        -1.103564         1.881417         0.720622
 C        -0.865694         1.722034         3.007003
 C         0.386703         1.043326         2.338492
 H         0.537620        -0.043587        -0.826918
 H        -2.112536        -0.576035         0.659264
 H        -1.509664        -0.890185         2.304904
 H        -4.144245         1.618950         1.366990
 H        -3.186977         3.222133         1.683386
 H        -0.304686         2.795962         0.584807
 H        -0.653355         2.801083         3.081133
 H        -0.982697         1.423807         4.099333
 H         1.142380         1.768174         2.278501
 H         0.694029         0.106406         2.825032
