19
Iteration:  2675
 O         0.699020        -0.222994         0.143423
 C        -0.245277         0.528908         1.000838
 C        -1.688094         0.008586         1.543358
 C        -1.805353         1.465276         1.914103
 C        -3.015322         2.168159         1.336138
 O        -2.381340         1.918981         0.019503
 C        -1.076113         1.847095         0.678300
 C        -0.865704         1.581263         3.074287
 C         0.364598         1.038949         2.304143
 H         0.222380        -0.299029        -0.759351
 H        -2.380139        -0.260564         0.752238
 H        -1.705371        -0.727872         2.376702
 H        -3.942371         1.452924         1.346220
 H        -3.277278         3.179464         1.546754
 H        -0.511917         2.774992         0.698159
 H        -0.561326         2.589286         3.391912
 H        -1.277693         0.898277         3.828459
 H         1.123336         1.835248         2.157254
 H         1.042899         0.151620         2.756306
