19
Iteration:  4200charge 0 multiplicity 1
 O         0.609957        -0.165429         0.200117
 C        -0.276146         0.513285         0.984845
 C        -1.728536         0.051798         1.443396
 C        -1.845396         1.501173         1.905275
 C        -2.953775         2.175964         1.259673
 O        -2.267144         2.055803        -0.086179
 C        -1.022470         1.976154         0.735187
 C        -0.866918         1.404553         3.230718
 C         0.358200         0.867149         2.318037
 H         0.302823        -1.088704        -0.004926
 H        -2.399516         0.016660         0.571426
 H        -1.869813        -0.743307         2.181232
 H        -3.921653         1.429533         1.199871
 H        -3.350467         3.282831         1.551422
 H        -0.357294         3.003919         0.655444
 H        -0.656523         2.218827         3.874613
 H        -1.379462         0.605940         3.818916
 H         1.134560         1.548373         2.109251
 H         0.875921         0.000219         2.605604
