19
Iteration:   360
 O         0.628710        -0.147174         0.236924
 C        -0.285298         0.556589         0.994877
 C        -1.632048        -0.119984         1.532993
 C        -1.807258         1.501207         2.000205
 C        -3.033169         2.028019         1.310480
 O        -2.455538         1.867714        -0.076530
 C        -1.076463         1.823269         0.603827
 C        -0.760338         1.638622         3.142991
 C         0.381851         1.116218         2.272642
 H         0.662287         0.161865        -0.716838
 H        -2.314623        -0.458518         0.701782
 H        -1.648767        -0.709244         2.447452
 H        -4.006533         1.623519         1.406952
 H        -3.203339         3.099678         1.440404
 H        -0.548562         2.713573         0.487760
 H        -0.610422         2.683221         3.539622
 H        -0.891038         0.971462         3.937745
 H         1.137381         1.854908         1.942590
 H         1.037396         0.387794         2.865756
