19
Iteration:  3031charge 0 multiplicity 1
 O         0.653351        -0.186284         0.056825
 C        -0.232328         0.530759         1.006675
 C        -1.650308        -0.099065         1.514229
 C        -1.830387         1.469669         1.942012
 C        -3.015752         2.195589         1.327889
 O        -2.383601         1.874662         0.054203
 C        -1.019152         1.869839         0.635659
 C        -0.917548         1.622184         3.089431
 C         0.413432         1.001645         2.380329
 H         0.062659        -0.167408        -0.667360
 H        -2.339650        -0.508435         0.764744
 H        -1.696486        -0.781428         2.454523
 H        -3.997753         1.663462         1.531232
 H        -3.134914         3.297126         1.458581
 H        -0.462603         2.848790         0.563078
 H        -0.816543         2.656115         3.302819
 H        -1.187515         1.061710         3.960172
 H         1.117080         1.817020         2.038907
 H         1.005016         0.395596         2.974836
