19
Iteration:  4939
 O         0.657567        -0.168149         0.250664
 C        -0.332710         0.491903         0.934221
 C        -1.654953        -0.076810         1.460281
 C        -1.771245         1.472679         1.890695
 C        -2.941007         2.248488         1.376646
 O        -2.342667         2.113227        -0.002290
 C        -0.954527         1.804189         0.570034
 C        -0.958064         1.504816         3.148504
 C         0.271806         0.864907         2.353981
 H         0.685135        -0.026134        -0.679609
 H        -2.422147        -0.130644         0.617021
 H        -1.797142        -0.876529         2.234817
 H        -3.996284         1.782101         1.425603
 H        -3.069639         3.373905         1.456186
 H        -0.282269         2.743317         0.532550
 H        -0.686421         2.380230         3.684831
 H        -1.273117         0.746281         3.880760
 H         1.087658         1.631902         2.223674
 H         0.643287        -0.074706         2.754320
