19
Iteration:  1410
 O         0.433682        -0.243787         0.084932
 C        -0.262430         0.543992         0.963581
 C        -1.495498        -0.059526         1.608007
 C        -1.817709         1.416430         1.917479
 C        -3.090506         2.052936         1.278075
 O        -2.287097         1.886807        -0.033125
 C        -1.091162         1.907237         0.738778
 C        -0.854761         1.748871         3.101397
 C         0.415573         1.044020         2.371844
 H         0.920319         0.348607        -0.451504
 H        -2.144713        -0.458264         0.869060
 H        -1.216456        -0.799741         2.319555
 H        -4.020267         1.344826         1.359433
 H        -3.151017         3.125420         1.225136
 H        -0.526678         2.810124         0.546586
 H        -0.824390         2.763231         3.375991
 H        -1.123014         1.105397         3.965147
 H         1.237857         1.815814         2.187568
 H         0.690769         0.192358         2.936294
