19
Iteration:  4414charge 0 multiplicity 1
 O         0.517885        -0.008817         0.046581
 C        -0.263414         0.532896         1.021983
 C        -1.633481        -0.002708         1.433897
 C        -1.798383         1.597251         1.939623
 C        -2.966735         2.178835         1.287495
 O        -2.321800         1.941576        -0.057817
 C        -0.943056         1.913960         0.703656
 C        -0.882973         1.523223         3.104921
 C         0.299912         0.688832         2.480458
 H         0.920315        -0.915712         0.203099
 H        -2.183399        -0.386238         0.563447
 H        -1.841886        -0.600810         2.279750
 H        -3.965260         1.627027         1.361988
 H        -3.287740         3.218168         1.487906
 H        -0.328189         2.911161         0.475304
 H        -0.621814         2.491824         3.476930
 H        -1.374304         1.081861         3.970777
 H         1.285397         1.085119         2.608956
 H         0.353917        -0.222314         2.990747
