19
Iteration:   607
 O         0.501887        -0.282846         0.110343
 C        -0.203622         0.626446         0.883008
 C        -1.384110        -0.014598         1.477582
 C        -1.801300         1.421398         1.984611
 C        -2.984923         2.156196         1.347987
 O        -2.471754         1.772065        -0.042939
 C        -1.098294         1.858232         0.710649
 C        -0.896263         1.684190         3.142027
 C         0.321769         1.096337         2.407124
 H         0.981224         0.081877        -0.673002
 H        -1.964933        -0.429330         0.663286
 H        -1.334639        -0.795129         2.194374
 H        -4.010469         1.771709         1.295747
 H        -2.856520         3.235691         1.430438
 H        -0.769639         2.823874         0.669641
 H        -0.824321         2.746948         3.520277
 H        -1.089930         1.001443         3.997083
 H         1.145301         1.950947         2.370824
 H         0.630397         0.224792         2.928914
