19
Iteration:  4397
 O         0.534320        -0.087162         0.043525
 C        -0.188144         0.570007         1.042373
 C        -1.666279         0.068634         1.484674
 C        -1.831569         1.460012         1.911948
 C        -3.102439         2.153061         1.173469
 O        -2.360100         2.090539        -0.064964
 C        -0.957469         1.874272         0.711764
 C        -0.861874         1.523611         3.169609
 C         0.403757         0.703699         2.493077
 H         0.737851        -0.959866         0.499293
 H        -2.309746        -0.072014         0.593976
 H        -1.545219        -0.819511         2.182768
 H        -4.006632         1.606538         1.226434
 H        -3.078498         3.212263         1.450277
 H        -0.530024         2.787315         0.639918
 H        -0.427783         2.551088         3.322579
 H        -1.288713         0.963149         4.059541
 H         1.385303         1.264873         2.517931
 H         0.556875        -0.423392         2.910819
