19
Iteration:   593charge 0 multiplicity 1
 O         0.455195        -0.169611         0.122781
 C        -0.224237         0.647815         1.045608
 C        -1.509538        -0.098366         1.529161
 C        -1.864563         1.392812         1.961306
 C        -3.008177         2.095426         1.257915
 O        -2.376070         1.809387        -0.025622
 C        -1.110577         1.852188         0.647528
 C        -0.881481         1.643823         3.090262
 C         0.470239         1.069601         2.371087
 H         0.802194         0.377231        -0.614470
 H        -2.228035        -0.529684         0.779419
 H        -1.147688        -0.736166         2.351959
 H        -4.084593         1.859677         1.516687
 H        -2.945347         3.214433         1.508032
 H        -0.625734         2.822411         0.514759
 H        -0.731025         2.711669         3.223689
 H        -1.193053         1.252889         4.086148
 H         1.264760         1.803059         2.270049
 H         0.989579         0.127426         2.886263
