19
Iteration:  1061charge 0 multiplicity 1
 O         0.444008        -0.292034         0.129372
 C        -0.195078         0.577927         0.981186
 C        -1.440121        -0.032000         1.540957
 C        -1.822771         1.376513         1.953544
 C        -3.096141         2.016380         1.403965
 O        -2.398925         1.852636        -0.053903
 C        -1.104891         1.809150         0.683364
 C        -0.853854         1.744485         3.051797
 C         0.402532         1.237588         2.301448
 H         1.430753        -0.058724         0.018494
 H        -2.159641        -0.195098         0.734571
 H        -1.529782        -0.765264         2.359013
 H        -4.005310         1.452577         1.364928
 H        -3.119906         3.055595         1.783621
 H        -0.411709         2.730637         0.509464
 H        -0.708121         2.790328         3.298775
 H        -0.989298         1.106802         4.023415
 H         0.975364         2.025219         1.814163
 H         0.944458         0.507326         2.800751
