19
Iteration:  2865charge 0 multiplicity 1
 O         0.492898        -0.142433         0.066876
 C        -0.293769         0.627783         0.956407
 C        -1.578521        -0.005158         1.499318
 C        -1.825635         1.468362         1.973581
 C        -3.029727         2.057876         1.230315
 O        -2.289122         1.866055        -0.009476
 C        -1.032681         1.898801         0.739969
 C        -0.829524         1.637661         3.126333
 C         0.389147         0.973509         2.432138
 H        -0.160738        -0.718855        -0.292960
 H        -2.281528        -0.394357         0.692453
 H        -1.336152        -0.874401         2.166164
 H        -3.949457         1.444282         1.203527
 H        -3.309165         3.029672         1.508800
 H        -0.607267         2.825424         0.547964
 H        -0.506987         2.651226         3.361883
 H        -0.968482         1.131479         4.060812
 H         1.286783         1.713562         2.375533
 H         0.817831         0.102257         2.871762
