19
Iteration:  3809
 O         0.575776        -0.266609         0.107387
 C        -0.289117         0.519209         0.975957
 C        -1.626357        -0.092277         1.444811
 C        -1.813567         1.414866         1.933884
 C        -3.011494         2.155453         1.297893
 O        -2.302293         2.097751         0.007253
 C        -1.030387         1.904079         0.682141
 C        -0.897356         1.597174         3.099115
 C         0.339893         0.908574         2.443743
 H         0.910461         0.340417        -0.557483
 H        -2.326922        -0.345743         0.641007
 H        -1.663972        -0.769450         2.280942
 H        -3.917085         1.661131         1.220735
 H        -3.264796         3.194665         1.589046
 H        -0.320701         2.760043         0.654696
 H        -0.723193         2.657270         3.252660
 H        -1.166258         1.116664         4.074648
 H         1.186927         1.629839         2.273942
 H         0.685285        -0.041311         3.116573
