19
Iteration:  2175
 O         0.499778        -0.182344         0.099580
 C        -0.259234         0.573216         1.006387
 C        -1.572171        -0.093788         1.543392
 C        -1.823633         1.443758         1.987469
 C        -3.068292         2.068950         1.293560
 O        -2.336890         1.891700        -0.025295
 C        -1.035531         1.861868         0.665987
 C        -0.867808         1.668344         3.122206
 C         0.453757         1.085915         2.357154
 H         0.081745        -0.332740        -0.764379
 H        -2.080562        -0.640483         0.704897
 H        -1.392750        -0.811152         2.421216
 H        -4.043686         1.416208         1.289118
 H        -3.147404         3.175747         1.458211
 H        -0.366631         2.854083         0.470556
 H        -0.586430         2.690748         3.434364
 H        -1.234504         1.093099         4.022162
 H         1.123137         2.013404         2.158201
 H         0.949730         0.280405         2.817954
