19
Iteration:   793
 O         0.543055        -0.258859        -0.032610
 C        -0.231268         0.596426         0.947680
 C        -1.547593        -0.063179         1.557212
 C        -1.800276         1.386649         1.957964
 C        -3.095713         2.008850         1.331076
 O        -2.359374         1.899519         0.059147
 C        -1.066658         1.869598         0.703494
 C        -0.870673         1.745811         3.006311
 C         0.412489         1.186267         2.444999
 H         0.577811        -1.161408         0.430816
 H        -2.192582        -0.453467         0.800395
 H        -1.569668        -0.731089         2.348354
 H        -4.057257         1.464391         1.142181
 H        -3.316674         3.100875         1.532584
 H        -0.471603         2.876845         0.553430
 H        -0.726863         2.863796         3.083091
 H        -0.964397         1.351552         4.020963
 H         1.313894         1.813174         2.306192
 H         0.699039         0.249421         2.878939
