19
Iteration:  4470
 O         0.436478        -0.140625         0.103527
 C        -0.313497         0.458080         0.985154
 C        -1.578865        -0.172726         1.489067
 C        -1.856523         1.360345         1.906809
 C        -3.031199         2.291206         1.257817
 O        -2.221162         2.208763        -0.048649
 C        -0.990939         1.814709         0.718999
 C        -0.901415         1.486635         3.108365
 C         0.415998         0.980689         2.410081
 H         0.948161        -0.873687         0.403056
 H        -2.178585        -0.481744         0.622518
 H        -1.585660        -0.822086         2.320890
 H        -3.880606         1.694035         0.973652
 H        -3.159930         3.244486         1.732061
 H        -0.435492         2.809570         1.070086
 H        -0.903084         2.447782         3.481686
 H        -1.305658         0.789214         3.829259
 H         1.118064         1.742038         2.230704
 H         0.848546         0.133862         2.846429
