19
Iteration:  3180
 O         0.651744        -0.160645         0.250344
 C        -0.347809         0.490470         0.927730
 C        -1.647173        -0.103183         1.542290
 C        -1.787023         1.467938         1.959574
 C        -3.054408         2.003451         1.331133
 O        -2.381493         2.055772        -0.030003
 C        -1.035968         1.863203         0.635895
 C        -0.790953         1.688944         3.072465
 C         0.364275         0.984831         2.303889
 H         0.484774        -0.042542        -0.669078
 H        -2.475505        -0.285391         0.863340
 H        -1.635992        -0.837323         2.345603
 H        -3.876560         1.381298         1.456864
 H        -3.292070         2.994350         1.597953
 H        -0.431526         2.655330         0.346948
 H        -0.500027         2.780434         3.382983
 H        -0.948256         1.128168         4.036638
 H         1.190829         1.680114         2.080435
 H         0.585949        -0.130462         2.673327
