19
Iteration:  4122charge 0 multiplicity 1
 O         0.452221        -0.158989         0.096862
 C        -0.326063         0.516001         1.013570
 C        -1.627460        -0.097633         1.493633
 C        -1.876228         1.470982         1.964591
 C        -2.997258         2.145746         1.164183
 O        -2.169760         2.085381        -0.040834
 C        -0.983664         1.887661         0.772850
 C        -0.912390         1.545268         3.215757
 C         0.334140         0.867023         2.331046
 H         1.269698         0.397320        -0.101121
 H        -2.304828        -0.416450         0.708349
 H        -1.565426        -0.913216         2.249531
 H        -4.026811         1.592362         1.061315
 H        -3.055188         3.288574         1.338267
 H        -0.342320         2.856732         0.776397
 H        -0.649444         2.510027         3.576398
 H        -1.098063         0.910793         4.100587
 H         1.152654         1.451881         2.170107
 H         0.598333        -0.128143         2.666834
