19
Iteration:    22charge 0 multiplicity 1
 O         0.507296        -0.130140         0.164772
 C        -0.310498         0.597111         0.969144
 C        -1.432533        -0.109322         1.785376
 C        -1.887590         1.378644         1.968697
 C        -3.163092         2.003743         1.215936
 O        -2.402401         1.849910        -0.047894
 C        -1.160376         1.799062         0.642983
 C        -0.745668         1.686336         3.075325
 C         0.466990         1.258132         2.155520
 H         1.409241        -0.068946         0.516371
 H        -2.042574        -0.676665         1.128212
 H        -1.121312        -0.722522         2.616233
 H        -4.050110         1.404575         1.155546
 H        -3.460302         3.059356         1.383912
 H        -0.597445         2.640413         0.414367
 H        -0.618823         2.615526         3.645503
 H        -0.776106         0.961031         3.809993
 H         1.293172         1.943884         1.968954
 H         0.900664         0.352520         2.641527
