19
Iteration:  3298
 O         0.573625        -0.102903         0.123568
 C        -0.270670         0.548020         1.009959
 C        -1.561573        -0.062384         1.448237
 C        -1.819122         1.402473         1.971441
 C        -3.006250         2.091157         1.375784
 O        -2.308508         1.890304         0.012022
 C        -1.093818         1.843411         0.706127
 C        -0.855840         1.749896         3.015968
 C         0.369242         0.920884         2.365093
 H         0.070369        -0.528681        -0.628709
 H        -2.316532        -0.309321         0.700089
 H        -1.415593        -0.840174         2.228062
 H        -3.999953         1.604414         1.275546
 H        -3.064084         3.258994         1.405831
 H        -0.522392         2.869623         0.637179
 H        -0.743613         2.790174         3.137788
 H        -1.272647         1.425750         3.984448
 H         1.192666         1.561133         2.423241
 H         0.527646         0.036598         2.871247
