19
Iteration:  2610
 O         0.595246        -0.162313         0.012078
 C        -0.243463         0.508042         0.971961
 C        -1.582460        -0.030266         1.528491
 C        -1.855590         1.423414         1.948556
 C        -3.039628         2.090316         1.271125
 O        -2.355027         1.994330         0.033362
 C        -1.015443         1.770990         0.720108
 C        -0.854374         1.720943         3.083030
 C         0.385624         1.011530         2.433504
 H         0.012297        -0.706022        -0.501963
 H        -2.358804        -0.244574         0.769104
 H        -1.621741        -0.919450         2.216469
 H        -3.975081         1.509958         1.314578
 H        -3.407205         3.050653         1.645537
 H        -0.530582         2.682749         0.685986
 H        -0.776364         2.844690         3.204713
 H        -1.046698         1.294131         4.106533
 H         1.321866         1.642324         2.352464
 H         0.843813        -0.012161         2.907680
