19
Iteration:  2130
 O         0.666588         0.027684         0.168346
 C        -0.335431         0.515837         0.996259
 C        -1.648910        -0.027737         1.569202
 C        -1.755220         1.508075         1.929037
 C        -3.063400         2.161236         1.250283
 O        -2.395359         1.796217        -0.003922
 C        -1.104874         1.725138         0.602750
 C        -0.755922         1.627749         3.158370
 C         0.380606         0.926740         2.337488
 H         0.184376        -0.300401        -0.653581
 H        -2.518313        -0.169040         0.889840
 H        -1.679062        -0.691497         2.510839
 H        -3.992537         1.477712         1.367498
 H        -3.138712         3.270884         1.353875
 H        -0.593339         2.819232         0.485835
 H        -0.625540         2.715226         3.278081
 H        -0.804937         1.122084         4.156165
 H         1.246392         1.607023         1.970530
 H         0.818194         0.110204         2.804450
