19
Iteration:  2174
 O         0.499588        -0.175804         0.104364
 C        -0.249978         0.564740         0.999918
 C        -1.573673        -0.080382         1.549314
 C        -1.827531         1.441648         1.983165
 C        -3.065055         2.075252         1.290054
 O        -2.334875         1.880996        -0.023298
 C        -1.041791         1.868141         0.664539
 C        -0.863161         1.661941         3.128944
 C         0.453835         1.080924         2.350538
 H         0.081347        -0.330418        -0.793664
 H        -2.090700        -0.636659         0.714576
 H        -1.398766        -0.816025         2.433550
 H        -4.028632         1.442741         1.312521
 H        -3.156817         3.166467         1.432978
 H        -0.402218         2.852256         0.477044
 H        -0.586734         2.681481         3.444543
 H        -1.263371         1.076500         4.018912
 H         1.138158         2.058139         2.155764
 H         0.915158         0.263279         2.823825
