19
Iteration:  2664
 O         0.702294        -0.213030         0.182379
 C        -0.213763         0.537324         0.994466
 C        -1.743626        -0.038450         1.554525
 C        -1.880399         1.514478         1.956661
 C        -3.097357         2.173918         1.277627
 O        -2.401978         1.934500        -0.005268
 C        -1.055853         1.835205         0.635573
 C        -0.810323         1.520153         3.110805
 C         0.481036         1.055724         2.291918
 H         0.317757        -0.133155        -0.720980
 H        -2.373547        -0.369399         0.728614
 H        -1.746730        -0.731846         2.422884
 H        -4.226136         1.846008         1.497961
 H        -2.987104         3.201599         1.408986
 H        -0.567083         2.755391         0.354440
 H        -0.788264         2.363721         3.834087
 H        -0.923214         0.719410         3.862571
 H         1.129733         1.911607         2.009532
 H         1.041882         0.101801         2.823995
