19
Iteration:  2199charge 0 multiplicity 1
 O         0.570807        -0.210172         0.127046
 C        -0.234208         0.443741         0.986744
 C        -1.575951        -0.090691         1.576264
 C        -1.800101         1.331567         2.001489
 C        -3.064621         1.948568         1.273082
 O        -2.333802         2.126664         0.020067
 C        -1.087277         1.824193         0.699385
 C        -0.838598         1.787578         3.053002
 C         0.372229         1.112532         2.279254
 H         0.115607        -0.596020        -0.702380
 H        -2.269226        -0.390171         0.750458
 H        -1.543301        -0.913307         2.286778
 H        -3.885423         1.125876         1.182992
 H        -3.332418         3.005663         1.637906
 H        -0.447850         2.845440         0.785594
 H        -0.678252         2.893674         3.156757
 H        -1.069647         1.387627         4.042054
 H         1.149861         1.784551         2.052451
 H         0.749502         0.296313         2.937898
