19
Iteration:   637charge 0 multiplicity 1
 O         0.584128        -0.175464         0.180431
 C        -0.281824         0.475924         0.954611
 C        -1.627834        -0.002858         1.541667
 C        -1.787659         1.471309         1.953696
 C        -3.073619         2.013335         1.349965
 O        -2.420900         1.960564        -0.019936
 C        -1.068846         1.795783         0.634283
 C        -0.819986         1.645912         3.052969
 C         0.436584         1.061253         2.307721
 H         1.423019         0.299841        -0.012193
 H        -2.263272        -0.372971         0.695874
 H        -1.629396        -0.634854         2.450349
 H        -3.960786         1.290798         1.365043
 H        -3.524951         3.024684         1.648702
 H        -0.439679         2.711641         0.380559
 H        -0.700578         2.664734         3.415335
 H        -1.050407         1.070540         3.970669
 H         0.963432         1.942449         1.983759
 H         1.078887         0.299017         2.905444
