19
Iteration:  3503charge 0 multiplicity 1
 O         0.656327        -0.238346         0.217484
 C        -0.299507         0.492821         1.004380
 C        -1.593412        -0.055238         1.546177
 C        -1.852262         1.463016         1.930633
 C        -3.015522         2.133871         1.323409
 O        -2.382247         2.077352        -0.042043
 C        -1.045735         1.835268         0.671988
 C        -0.882817         1.520474         3.096093
 C         0.376650         1.039369         2.247935
 H         0.380312         0.224378        -0.639765
 H        -2.208031        -0.409085         0.727515
 H        -1.566457        -0.811672         2.368342
 H        -4.021680         1.591166         1.233681
 H        -3.050795         3.168704         1.731386
 H        -0.390236         2.664173         0.518668
 H        -0.835071         2.445363         3.622842
 H        -1.105635         0.732717         3.897227
 H         1.101205         1.788807         1.876297
 H         0.898617         0.415965         2.923843
