19
Iteration:  2947charge 0 multiplicity 1
 O         0.615944        -0.269959         0.136422
 C        -0.305856         0.539975         0.962222
 C        -1.610989        -0.038654         1.448006
 C        -1.786068         1.440261         1.910158
 C        -3.093966         1.990806         1.352524
 O        -2.410798         1.991334         0.013352
 C        -1.016499         1.904479         0.627711
 C        -0.813062         1.683504         3.108961
 C         0.394947         1.038255         2.450144
 H         0.321632         0.022319        -0.794080
 H        -2.242709        -0.286689         0.609189
 H        -1.535425        -0.749025         2.249175
 H        -4.042840         1.525255         1.453813
 H        -3.043619         3.037967         1.687748
 H        -0.365743         2.780382         0.429810
 H        -0.644175         2.791714         3.187187
 H        -1.026166         1.324873         4.189785
 H         1.253339         1.691019         2.236521
 H         0.655610         0.002206         2.952283
