19
Iteration:  4045charge 0 multiplicity 1
 O         0.698569        -0.078748         0.094381
 C        -0.248954         0.496176         0.961951
 C        -1.752387        -0.132734         1.527547
 C        -1.969319         1.372288         1.956512
 C        -2.988179         2.259853         1.267545
 O        -2.263417         2.175191        -0.019916
 C        -1.046860         1.804542         0.790699
 C        -0.918423         1.566516         3.047334
 C         0.337811         0.816587         2.309929
 H         1.328050        -0.573883         0.658204
 H        -2.382703        -0.518400         0.702535
 H        -1.643819        -0.889805         2.340638
 H        -4.048355         1.985604         0.952676
 H        -3.065547         3.240014         1.685937
 H        -0.373373         2.694908         0.787834
 H        -0.797615         2.590245         3.313651
 H        -1.049222         0.954686         3.945876
 H         1.350050         1.286069         2.154044
 H         0.589531        -0.109743         2.834082
