19
Iteration:  4117charge 0 multiplicity 1
 O         0.444758        -0.182701         0.091696
 C        -0.304931         0.533285         0.999106
 C        -1.614117        -0.051652         1.492892
 C        -1.878683         1.460187         1.973990
 C        -3.003589         2.136310         1.158595
 O        -2.181356         2.078600        -0.079927
 C        -0.981228         1.925176         0.795787
 C        -0.889998         1.512069         3.196668
 C         0.298109         0.852488         2.326472
 H         1.280329         0.258436         0.003703
 H        -2.416821        -0.389247         0.795833
 H        -1.508893        -0.806736         2.275499
 H        -3.908994         1.634712         1.225218
 H        -3.139879         3.213285         1.408328
 H        -0.420490         2.850786         0.789303
 H        -0.586923         2.508559         3.706406
 H        -1.241781         0.852241         4.008546
 H         1.261075         1.579564         2.322420
 H         0.790910        -0.058709         2.858376
