19
Iteration:   649charge 0 multiplicity 1
 O         0.579174        -0.141288         0.187615
 C        -0.344649         0.514250         1.077882
 C        -1.615728        -0.087198         1.618791
 C        -1.821803         1.458310         1.917055
 C        -3.093066         1.947690         1.258483
 O        -2.388019         2.031867        -0.031674
 C        -1.078460         1.801373         0.652296
 C        -0.703726         1.654795         3.079172
 C         0.362681         1.082169         2.185989
 H         1.331051         0.371332         0.416161
 H        -2.391066        -0.266047         0.862769
 H        -1.622408        -0.935399         2.299679
 H        -3.905239         1.148616         1.337248
 H        -3.352085         2.995761         1.609505
 H        -0.475534         2.713948         0.686749
 H        -0.490124         2.719894         3.290277
 H        -0.955417         1.040540         3.956203
 H         1.211224         1.692425         1.869608
 H         0.955381         0.204239         2.610130
