19
Iteration:  4791
 O         0.649588        -0.208124         0.080012
 C        -0.320939         0.447083         0.906087
 C        -1.678924        -0.021977         1.394243
 C        -1.853425         1.505561         1.959940
 C        -2.958517         2.251798         1.292485
 O        -2.363142         2.115246        -0.010048
 C        -0.936780         1.818914         0.648751
 C        -0.932374         1.482589         3.222200
 C         0.281422         0.872473         2.437273
 H         1.555445        -0.226759         0.413493
 H        -2.520879        -0.255169         0.650771
 H        -1.633182        -0.905306         2.174831
 H        -3.886848         1.666423         1.421581
 H        -3.037230         3.407453         1.658412
 H        -0.341949         2.765875         0.391389
 H        -0.564901         2.558280         3.415848
 H        -1.314010         0.809991         4.046994
 H         0.923894         1.752278         2.319366
 H         0.861486         0.027780         2.960649
