19
Iteration:  1287
 O         0.532586        -0.125686         0.104186
 C        -0.358743         0.551929         0.985881
 C        -1.616606        -0.095802         1.686293
 C        -1.840425         1.402365         2.024217
 C        -3.033966         1.950154         1.194418
 O        -2.285527         1.901811        -0.092229
 C        -1.068502         1.821725         0.716405
 C        -0.749608         1.746194         3.132433
 C         0.427807         1.118206         2.281777
 H         0.206735         0.146520        -0.730200
 H        -2.417766        -0.412733         0.983632
 H        -1.502610        -0.705153         2.590337
 H        -3.934549         1.277604         1.473733
 H        -3.422779         2.978156         1.348468
 H        -0.547695         2.778097         0.823526
 H        -0.800300         2.818490         3.154119
 H        -0.888294         1.235854         4.075714
 H         1.270899         1.721701         1.924636
 H         0.802842         0.193332         2.818240
