19
Iteration:   756
 O         0.606010        -0.099463         0.130016
 C        -0.306550         0.509715         1.003978
 C        -1.626600        -0.130306         1.635862
 C        -1.862451         1.413056         1.956897
 C        -3.060080         2.065441         1.264305
 O        -2.402729         1.960601        -0.036632
 C        -1.128176         1.813636         0.646948
 C        -0.705980         1.678616         3.077696
 C         0.389989         1.042414         2.247488
 H         1.396209        -0.338805         0.639494
 H        -2.360088        -0.409857         0.859212
 H        -1.560247        -0.770006         2.569316
 H        -4.030851         1.553404         1.318248
 H        -3.231622         3.084805         1.600406
 H        -0.542601         2.728511         0.305380
 H        -0.556273         2.733138         3.235280
 H        -0.980294         1.265346         4.038921
 H         1.017694         1.890163         2.066302
 H         1.022110         0.163516         2.780335
