19
Iteration:  3240
 O         0.564079        -0.132407         0.156030
 C        -0.304586         0.514587         1.019854
 C        -1.686313        -0.032136         1.525675
 C        -1.798537         1.418994         1.994040
 C        -2.989515         2.046909         1.267407
 O        -2.300512         1.930022        -0.009286
 C        -1.029445         1.867421         0.693832
 C        -0.847132         1.602986         3.104666
 C         0.368437         1.072134         2.278528
 H         0.206142        -0.323257        -0.725561
 H        -2.397171        -0.431840         0.751674
 H        -1.626611        -0.626038         2.459159
 H        -4.023930         1.483931         1.382675
 H        -3.129453         3.138383         1.487789
 H        -0.318505         2.695671         0.557956
 H        -0.660107         2.601680         3.335123
 H        -1.080581         1.003813         3.962282
 H         1.099210         1.902467         2.140476
 H         0.996108         0.292093         2.608675
