19
Iteration:  3923
 O         0.666979        -0.260625         0.169158
 C        -0.296590         0.514204         0.960147
 C        -1.669369        -0.099726         1.333267
 C        -1.891650         1.354833         1.950334
 C        -2.989798         2.210755         1.296915
 O        -2.303917         2.147483         0.016432
 C        -1.058646         1.802446         0.719830
 C        -0.861868         1.600117         3.117870
 C         0.302662         0.947888         2.407204
 H         0.961292         0.345451        -0.495696
 H        -2.402932        -0.134880         0.491315
 H        -1.708217        -0.946550         2.074474
 H        -4.060174         1.891292         1.182929
 H        -3.005598         3.148147         1.784126
 H        -0.408340         2.649612         0.795057
 H        -0.702717         2.706034         3.226229
 H        -1.038473         1.093779         4.054373
 H         1.389543         1.504068         2.406904
 H         0.584440        -0.025525         2.996881
