19
Iteration:  2502
 O         0.685270        -0.166373         0.180618
 C        -0.309025         0.493170         0.908984
 C        -1.577928        -0.141140         1.493598
 C        -1.856722         1.431902         1.977195
 C        -2.986703         2.213025         1.285461
 O        -2.411587         1.951931         0.004254
 C        -1.116747         1.809691         0.726158
 C        -0.864494         1.590922         3.132504
 C         0.374036         1.090633         2.266915
 H         0.334120        -0.556238        -0.611085
 H        -2.407018        -0.549659         0.854932
 H        -1.369635        -0.889058         2.337029
 H        -3.957294         1.860205         1.407841
 H        -2.721327         3.325476         1.494825
 H        -0.503171         2.840177         0.603141
 H        -0.610013         2.581783         3.559230
 H        -1.159504         1.071392         4.092714
 H         1.005403         1.959826         2.093060
 H         0.894619         0.316486         2.633752
