19
Iteration:  4181charge 0 multiplicity 1
 O         0.614791        -0.132002         0.211162
 C        -0.306252         0.566311         0.925308
 C        -1.642893        -0.032131         1.393177
 C        -1.845663         1.494751         1.975627
 C        -3.006204         2.205200         1.233459
 O        -2.273254         2.080395         0.024705
 C        -0.983360         1.884135         0.656070
 C        -0.893695         1.459931         3.116652
 C         0.276216         0.811507         2.444531
 H         0.222289        -0.729107        -0.429334
 H        -2.425088        -0.317181         0.662670
 H        -1.423200        -0.783975         2.122795
 H        -4.124268         1.816730         1.208946
 H        -3.130935         3.279850         1.385912
 H        -0.380578         2.749952         0.495769
 H        -0.526871         2.440832         3.478808
 H        -1.032805         0.881807         4.021664
 H         1.344139         1.361364         2.457062
 H         0.672218        -0.150921         2.799711
