19
Iteration:  2331charge 0 multiplicity 1
 O         0.586140        -0.190518         0.093754
 C        -0.325637         0.493795         0.936886
 C        -1.581606        -0.040641         1.540108
 C        -1.849228         1.443144         1.990575
 C        -3.113466         1.930595         1.279703
 O        -2.304620         2.045671         0.009753
 C        -1.034923         1.866202         0.707424
 C        -0.779492         1.803626         3.106917
 C         0.384406         0.996197         2.355672
 H         0.286793        -0.627964        -0.779536
 H        -2.227897        -0.396547         0.761219
 H        -1.547524        -0.742690         2.352462
 H        -3.942137         1.154193         1.360589
 H        -3.636398         2.734743         1.732839
 H        -0.319238         2.770063         0.645057
 H        -0.670525         2.890993         3.084549
 H        -0.972871         1.418001         4.094057
 H         1.285999         1.574038         2.061358
 H         0.677081         0.024658         2.937368
