19
Iteration:  3436charge 0 multiplicity 1
 O         0.576031        -0.043354        -0.011478
 C        -0.347223         0.418126         0.970849
 C        -1.661874        -0.073767         1.594590
 C        -1.869483         1.455644         1.997005
 C        -3.068039         2.066562         1.224936
 O        -2.299411         1.977337         0.000442
 C        -1.037434         1.874376         0.727904
 C        -0.802994         1.703326         3.066259
 C         0.406284         0.901738         2.370621
 H         1.362707        -0.273117         0.444010
 H        -2.506664        -0.551469         1.072380
 H        -1.450840        -0.659987         2.490059
 H        -3.957783         1.436608         1.077212
 H        -3.304104         3.136760         1.441540
 H        -0.453998         2.754971         0.604365
 H        -0.593372         2.762494         3.330243
 H        -1.102675         1.269104         4.058573
 H         1.370219         1.496948         2.251713
 H         0.610617        -0.073479         2.882425
