19
Iteration:   772charge 0 multiplicity 1
 O         0.539173        -0.168432         0.056457
 C        -0.277626         0.458518         1.003302
 C        -1.542347        -0.093980         1.526952
 C        -1.776466         1.417007         1.965792
 C        -3.005689         1.999404         1.377406
 O        -2.428775         2.002140         0.002604
 C        -1.037484         1.763856         0.574531
 C        -0.914771         1.803870         3.083904
 C         0.386619         1.104116         2.352732
 H         1.193830        -0.696740         0.478530
 H        -2.189771        -0.456878         0.733732
 H        -1.453969        -0.889090         2.210809
 H        -3.968552         1.415038         1.442505
 H        -3.212954         3.073420         1.701444
 H        -0.378611         2.640904         0.620312
 H        -0.785698         2.932292         3.189637
 H        -1.086332         1.406954         4.116538
 H         1.135088         1.824136         1.920485
 H         0.821458         0.368010         2.930718
