19
Iteration:  2293
 O         0.507254        -0.064584         0.075081
 C        -0.325964         0.529081         0.984306
 C        -1.579239        -0.076209         1.646697
 C        -1.878192         1.429843         2.014254
 C        -3.045992         2.136424         1.259419
 O        -2.317652         1.856939        -0.109701
 C        -1.040028         1.795351         0.677121
 C        -0.811404         1.604061         3.197640
 C         0.452947         1.035420         2.302548
 H         0.054563        -0.053142        -0.761245
 H        -2.329699        -0.560817         0.954743
 H        -1.396770        -0.789193         2.517886
 H        -3.972439         1.699203         1.071717
 H        -2.972639         3.213022         1.227703
 H        -0.577381         2.700241         0.666403
 H        -0.705891         2.656503         3.514394
 H        -0.744632         1.088157         4.197699
 H         1.209940         1.937408         2.161560
 H         0.968439         0.369013         2.929050
