19
Iteration:  1086charge 0 multiplicity 1
 O         0.598107        -0.194192         0.143818
 C        -0.296611         0.517974         0.949829
 C        -1.544806        -0.116173         1.631183
 C        -1.819777         1.433557         2.000271
 C        -3.086479         2.097942         1.243098
 O        -2.421117         1.829205         0.014745
 C        -1.114620         1.812263         0.636811
 C        -0.787224         1.714221         3.079025
 C         0.428502         1.163644         2.329487
 H         0.643795         0.424843        -0.659484
 H        -2.336000        -0.578244         0.925392
 H        -1.538509        -0.609987         2.635552
 H        -3.977220         1.474724         1.256572
 H        -3.134034         3.198106         1.416451
 H        -0.477866         2.658038         0.390396
 H        -0.603687         2.758484         3.436831
 H        -0.994892         1.090559         3.913066
 H         0.919979         1.953959         1.920355
 H         1.150417         0.368204         2.707852
