19
Iteration:  2588charge 0 multiplicity 1
 O         0.513977        -0.097416         0.113343
 C        -0.324591         0.501266         1.058315
 C        -1.522952        -0.104705         1.524812
 C        -1.813468         1.434077         1.939788
 C        -3.078284         1.929442         1.286093
 O        -2.312962         2.058329        -0.080266
 C        -1.088541         1.995883         0.711161
 C        -0.739912         1.765494         3.071905
 C         0.376461         0.871746         2.394379
 H        -0.049045        -0.684957        -0.485156
 H        -2.264126        -0.489651         0.791013
 H        -1.452375        -0.879748         2.336280
 H        -3.925664         1.232948         1.209955
 H        -3.530362         2.884837         1.636366
 H        -0.433520         2.774863         0.554422
 H        -0.480063         2.871277         3.084929
 H        -0.939787         1.516764         4.153704
 H         1.420170         1.260863         2.247851
 H         0.571163        -0.178271         3.014320
