19
Iteration:  3532
 O         0.690092        -0.053427         0.109181
 C        -0.353004         0.528463         0.961178
 C        -1.708533        -0.062659         1.504591
 C        -1.883773         1.427237         1.994919
 C        -3.006781         2.094638         1.300407
 O        -2.299861         1.974355        -0.036228
 C        -1.044283         1.812159         0.778719
 C        -0.825830         1.608668         3.098622
 C         0.379378         0.915296         2.335777
 H         0.191696        -0.688536        -0.408932
 H        -2.439184        -0.275663         0.719785
 H        -1.670111        -0.862730         2.207130
 H        -3.940072         1.665990         1.155795
 H        -3.133930         3.215262         1.573815
 H        -0.435323         2.806385         0.451015
 H        -0.587435         2.727710         3.051175
 H        -0.964043         1.385285         4.143331
 H         1.124013         1.663839         2.108569
 H         0.764652         0.133084         3.054892
