19
Iteration:   419
 O         0.421731        -0.078894         0.001229
 C        -0.235270         0.551068         0.935849
 C        -1.517973        -0.029132         1.487464
 C        -1.795655         1.382828         2.027510
 C        -3.030505         1.941750         1.289327
 O        -2.359684         1.876929         0.004487
 C        -1.007051         1.805288         0.677285
 C        -0.896754         1.780456         3.074204
 C         0.433001         1.095133         2.513989
 H         0.496609        -0.981555         0.258499
 H        -2.155940        -0.203902         0.622128
 H        -1.598654        -0.936818         2.144106
 H        -3.954221         1.308969         1.229299
 H        -3.002281         2.978027         1.512166
 H        -0.412110         2.822695         0.396999
 H        -0.663453         2.840012         3.003874
 H        -1.059691         1.539287         4.203494
 H         1.224123         1.812190         2.304775
 H         0.566766         0.116466         3.074169
