19
Iteration:  3325charge 0 multiplicity 1
 O         0.691782        -0.216679         0.146209
 C        -0.309086         0.439607         1.012933
 C        -1.646184        -0.100278         1.525834
 C        -1.863992         1.351623         1.998408
 C        -3.085899         2.025629         1.309992
 O        -2.367814         2.127860        -0.011804
 C        -1.046795         1.823215         0.676244
 C        -0.782682         1.742785         3.093356
 C         0.388038         1.021489         2.297035
 H         0.456649        -0.059947        -0.829050
 H        -2.485610        -0.324076         0.858974
 H        -1.551996        -0.877471         2.267064
 H        -3.931921         1.451060         0.989905
 H        -3.432349         3.004260         1.581062
 H        -0.443265         2.679547         0.577471
 H        -0.721402         2.911620         3.245367
 H        -1.080739         1.350367         4.083598
 H         1.111480         1.882840         2.131950
 H         0.894595         0.142256         2.894656
