19
Iteration:   900charge 0 multiplicity 1
 O         0.584884        -0.233514         0.094754
 C        -0.208344         0.519732         0.944211
 C        -1.565207        -0.078759         1.628713
 C        -1.801859         1.431094         1.972112
 C        -3.108452         1.995521         1.359056
 O        -2.442677         1.930549        -0.002514
 C        -1.142860         1.865137         0.685191
 C        -0.819914         1.794132         3.005426
 C         0.395059         1.099641         2.237637
 H         1.406561        -0.366766         0.685698
 H        -2.118297        -0.364224         0.723706
 H        -1.430230        -0.881106         2.372227
 H        -3.914441         1.283117         1.434244
 H        -3.342292         3.033462         1.527133
 H        -0.673790         2.838446         0.676987
 H        -0.579005         2.851306         3.118498
 H        -0.901233         1.331717         3.941050
 H         1.233436         1.753417         2.061573
 H         0.887581         0.238257         2.899798
