19
Iteration:  3929charge 0 multiplicity 1
 O         0.671157        -0.243174         0.180840
 C        -0.313005         0.437147         0.907990
 C        -1.678556        -0.117290         1.359308
 C        -1.857539         1.363208         1.943455
 C        -3.029369         2.226056         1.267972
 O        -2.286765         2.165589         0.032728
 C        -0.998498         1.810737         0.765281
 C        -0.903612         1.595144         3.117074
 C         0.350686         0.961374         2.423166
 H         0.795989         0.236677        -0.683852
 H        -2.400029        -0.219070         0.566790
 H        -1.766108        -0.946475         2.051634
 H        -4.042351         1.831620         1.195966
 H        -3.210009         3.222883         1.872044
 H        -0.427698         2.825868         0.587012
 H        -0.923446         2.688127         3.251375
 H        -0.972092         1.119288         4.124673
 H         1.167173         1.548183         2.280838
 H         0.627396         0.005051         2.841734
