19
Iteration:   815
 O         0.487285        -0.085358         0.131419
 C        -0.290849         0.568746         1.003952
 C        -1.503457        -0.047774         1.607112
 C        -1.791373         1.478766         2.000802
 C        -3.056702         1.982181         1.223298
 O        -2.391634         1.861239        -0.110510
 C        -1.087657         1.837682         0.756053
 C        -0.790880         1.741273         3.149123
 C         0.444635         1.011939         2.275125
 H         0.140567        -0.934364        -0.105296
 H        -2.241368        -0.384338         0.892529
 H        -1.400411        -0.761205         2.342066
 H        -3.981432         1.352147         1.271571
 H        -3.316241         3.065695         1.384056
 H        -0.628651         2.790922         0.322193
 H        -0.508074         2.808291         3.425058
 H        -1.018475         1.146649         4.034210
 H         1.197343         1.807989         2.062962
 H         0.975197         0.214001         2.761756
