19
Iteration:  1851charge 0 multiplicity 1
 O         0.572726        -0.113091         0.104279
 C        -0.255878         0.566836         1.022196
 C        -1.600874        -0.034099         1.525749
 C        -1.784553         1.483256         1.892543
 C        -3.055463         1.932358         1.319884
 O        -2.381300         1.889389         0.011910
 C        -1.021101         1.847579         0.669025
 C        -0.817681         1.775273         3.079453
 C         0.340312         0.953268         2.417186
 H         0.162155        -0.004378        -0.721084
 H        -2.355484        -0.273745         0.821879
 H        -1.339415        -0.755100         2.267922
 H        -3.946253         1.214514         1.379296
 H        -3.320172         3.067554         1.527107
 H        -0.498051         2.774186         0.291681
 H        -0.438688         2.809194         3.089366
 H        -1.047388         1.353282         4.096917
 H         1.340068         1.380040         2.270220
 H         0.558920         0.109666         2.921063
