19
Iteration:   410charge 0 multiplicity 1
 O         0.458168        -0.080812        -0.018401
 C        -0.265646         0.576387         1.023881
 C        -1.541476        -0.076722         1.526738
 C        -1.785506         1.400594         1.998283
 C        -3.031283         1.959340         1.267891
 O        -2.343209         1.881707        -0.057626
 C        -1.067489         1.794905         0.654869
 C        -0.830602         1.768826         3.146432
 C         0.450113         1.091816         2.477490
 H         0.331580        -1.012943         0.016564
 H        -2.307066        -0.195921         0.726256
 H        -1.534376        -0.963341         2.163327
 H        -4.049265         1.486749         1.258348
 H        -3.310843         3.022498         1.499881
 H        -0.416435         2.769548         0.517042
 H        -0.906907         2.861828         3.156018
 H        -1.142073         1.382971         4.174879
 H         1.346158         1.766065         2.458571
 H         0.848858         0.278431         3.004251
