19
Iteration:  2320
 O         0.565825        -0.113454         0.108886
 C        -0.294431         0.507117         0.986239
 C        -1.612740        -0.101645         1.645790
 C        -1.822085         1.464921         1.991379
 C        -3.101771         1.962371         1.267501
 O        -2.284780         2.034853         0.001372
 C        -1.045914         1.829703         0.730633
 C        -0.843429         1.748271         3.039414
 C         0.422558         0.962840         2.239439
 H        -0.011467        -0.350561        -0.640081
 H        -2.440893        -0.401959         1.034621
 H        -1.404526        -0.832375         2.406567
 H        -3.821640         1.115123         1.047004
 H        -3.490787         2.967103         1.345793
 H        -0.430218         2.825655         0.826345
 H        -0.660366         2.820003         3.216595
 H        -0.924039         1.308075         4.016874
 H         1.336053         1.587402         2.122822
 H         0.763284         0.131549         2.967513
