19
Iteration:  1674charge 0 multiplicity 1
 O         0.504685        -0.228089         0.153077
 C        -0.278739         0.572881         1.019947
 C        -1.520870        -0.113924         1.551865
 C        -1.802421         1.450098         1.954210
 C        -3.048593         2.166627         1.254379
 O        -2.335083         1.855287        -0.057225
 C        -1.094651         1.825736         0.686582
 C        -0.807850         1.627855         3.133636
 C         0.414043         1.133210         2.310878
 H         0.121729        -0.191721        -0.696910
 H        -2.142072        -0.580522         0.775797
 H        -1.345115        -0.833529         2.303033
 H        -4.114180         1.639987         1.314318
 H        -3.144363         3.183078         1.587204
 H        -0.438129         2.775505         0.820151
 H        -1.022634         2.683629         3.380681
 H        -1.157513         1.179048         4.141554
 H         1.028744         2.073196         1.953208
 H         1.006466         0.468693         2.861392
