19
Iteration:  4307charge 0 multiplicity 1
 O         0.556006        -0.092852         0.066026
 C        -0.276703         0.597784         0.968965
 C        -1.778054         0.075437         1.451719
 C        -1.843289         1.457988         1.946212
 C        -2.962261         2.184143         1.280680
 O        -2.238378         1.961608         0.000487
 C        -0.956252         1.944611         0.640491
 C        -0.855922         1.442166         3.172906
 C         0.279583         0.788499         2.391536
 H         1.212933        -0.631904         0.622883
 H        -2.495542        -0.276218         0.668101
 H        -1.668151        -0.724166         2.228373
 H        -3.912325         1.694324         1.243095
 H        -3.036998         3.230843         1.378808
 H        -0.471954         2.789797         0.638621
 H        -0.688496         2.489724         3.341153
 H        -1.209727         0.933302         4.118660
 H         1.252928         1.361729         2.459667
 H         0.485102        -0.256568         2.909672
