19
Iteration:  3234
 O         0.550799        -0.175538         0.175524
 C        -0.316513         0.512932         1.001096
 C        -1.624817        -0.071609         1.475666
 C        -1.812211         1.388863         1.971566
 C        -2.981494         2.071713         1.269890
 O        -2.326134         1.974492        -0.023942
 C        -1.070317         1.822897         0.694267
 C        -0.853250         1.650042         3.092793
 C         0.417624         1.101365         2.337205
 H         0.167978        -0.149207        -0.685022
 H        -2.393954        -0.438114         0.815490
 H        -1.623375        -0.763261         2.325084
 H        -3.850888         1.520533         1.251355
 H        -3.175598         3.078380         1.754738
 H        -0.458452         2.807245         0.658069
 H        -0.630102         2.729900         3.464989
 H        -1.006435         1.084115         4.068558
 H         1.117895         1.882710         2.041707
 H         0.986054         0.138461         2.683223
