19
Iteration:  3743charge 0 multiplicity 1
 O         0.478021        -0.094934         0.033820
 C        -0.279163         0.481002         1.000705
 C        -1.567106        -0.062802         1.479453
 C        -1.868518         1.410914         1.978556
 C        -2.927935         2.176440         1.275473
 O        -2.279858         2.005965        -0.026847
 C        -0.990381         1.852786         0.720210
 C        -0.916899         1.580690         3.147522
 C         0.386101         0.970044         2.384730
 H         0.264898        -1.033150         0.257459
 H        -2.270525        -0.349640         0.676031
 H        -1.512096        -0.877041         2.191256
 H        -3.827962         1.705271         1.134788
 H        -3.146956         3.231918         1.544552
 H        -0.519700         2.682865         0.533325
 H        -0.930942         2.634541         3.353459
 H        -1.413452         1.147559         4.050059
 H         1.147722         1.737242         2.245528
 H         0.844337         0.032046         2.969282
