19
Iteration:  4930charge 0 multiplicity 1
 O         0.641910        -0.188177         0.299481
 C        -0.368375         0.509644         0.903956
 C        -1.733654         0.000373         1.376554
 C        -1.727522         1.509932         1.880794
 C        -2.941900         2.221570         1.393306
 O        -2.307805         2.053198        -0.003033
 C        -0.971843         1.867157         0.617823
 C        -0.897912         1.455151         3.087586
 C         0.274072         0.870371         2.394255
 H         0.739070         0.125907        -0.578100
 H        -2.625026        -0.351946         0.785717
 H        -1.666256        -0.853554         2.075165
 H        -3.841078         1.551901         1.653405
 H        -3.064321         3.282255         1.617799
 H        -0.253772         2.773942         0.230175
 H        -0.912344         2.483088         3.632210
 H        -1.392336         0.747114         3.930004
 H         1.090994         1.533921         2.134384
 H         0.824285         0.049966         2.840638
