19
Iteration:  3550
 O         0.573095        -0.047568         0.043817
 C        -0.245235         0.536759         0.967045
 C        -1.560162        -0.060322         1.466623
 C        -1.833542         1.461300         1.996919
 C        -3.052845         2.111013         1.237211
 O        -2.301297         1.894979         0.029497
 C        -1.043112         1.916341         0.732972
 C        -0.835084         1.717746         3.083930
 C         0.332245         0.837828         2.377119
 H         0.183574        -0.891448        -0.136608
 H        -2.270566        -0.379121         0.647936
 H        -1.660120        -0.809633         2.312791
 H        -4.064979         1.561240         1.306729
 H        -3.099396         3.128778         1.450872
 H        -0.621197         2.792289         0.989312
 H        -0.637820         2.773345         3.323771
 H        -1.250569         1.252287         4.001834
 H         1.425416         1.325978         2.588231
 H         0.341978        -0.161946         2.905260
