19
Iteration:  1163
 O         0.480723        -0.140047         0.052817
 C        -0.278009         0.521079         0.988036
 C        -1.567905        -0.022471         1.608433
 C        -1.767113         1.405953         1.961111
 C        -3.067489         1.925133         1.293229
 O        -2.382396         1.899026        -0.011859
 C        -1.060476         1.888247         0.636061
 C        -0.832760         1.734826         3.029493
 C         0.410239         1.113367         2.363579
 H         1.057679        -0.747616         0.462279
 H        -2.248000        -0.511000         0.866323
 H        -1.376007        -0.789536         2.433289
 H        -4.046378         1.405851         1.290418
 H        -3.181864         3.032635         1.543576
 H        -0.512905         2.886935         0.683717
 H        -0.690028         2.851341         3.216226
 H        -0.974976         1.347471         4.014081
 H         1.227117         1.686144         2.188172
 H         0.960809         0.291435         2.989705
