19
Iteration:  3013
 O         0.553123        -0.047867         0.076078
 C        -0.346204         0.471716         1.008615
 C        -1.599540        -0.055751         1.588321
 C        -1.864462         1.433941         2.008940
 C        -2.995017         2.138307         1.235644
 O        -2.295056         1.897986        -0.071330
 C        -1.073699         1.755497         0.739858
 C        -0.784913         1.616106         3.170284
 C         0.365564         1.083699         2.295269
 H         0.165645        -0.569511        -0.598130
 H        -2.333351        -0.296012         0.802934
 H        -1.436153        -0.902894         2.263430
 H        -3.995270         1.831111         1.225343
 H        -2.906050         3.189097         1.482619
 H        -0.503054         2.631373         0.652533
 H        -0.615218         2.673045         3.528071
 H        -1.067278         0.929066         4.044716
 H         1.105448         1.902958         2.148620
 H         0.870869         0.079858         2.722563
