19
Iteration:   268charge 0 multiplicity 1
 O         0.498385        -0.097671        -0.065935
 C        -0.281576         0.510962         1.009377
 C        -1.600854        -0.029539         1.619418
 C        -1.790557         1.531132         2.014558
 C        -3.030727         1.970323         1.246150
 O        -2.330565         1.779083        -0.030442
 C        -1.060331         1.818759         0.662342
 C        -0.848285         1.731951         3.185362
 C         0.423363         1.142957         2.339124
 H         1.085066        -0.712890         0.341215
 H        -2.327344        -0.372051         0.902180
 H        -1.659575        -0.841196         2.427830
 H        -3.962488         1.345753         1.388019
 H        -3.449126         2.987992         1.370136
 H        -0.584646         2.754928         0.597976
 H        -0.718871         2.705343         3.616927
 H        -1.102310         0.921249         3.948495
 H         1.024662         2.058395         2.058969
 H         1.110300         0.521713         2.875823
