19
Iteration:   438
 O         0.537425        -0.155488        -0.012628
 C        -0.244556         0.609057         1.010086
 C        -1.552340        -0.100903         1.496790
 C        -1.762603         1.458205         1.979321
 C        -3.094063         1.997406         1.351732
 O        -2.341185         1.878535         0.016942
 C        -1.054884         1.880145         0.697267
 C        -0.852150         1.811603         3.053828
 C         0.338850         0.991482         2.359071
 H         1.176898        -0.780447         0.334948
 H        -2.311578        -0.480690         0.852170
 H        -1.408102        -0.890096         2.288178
 H        -3.993615         1.375286         1.294615
 H        -3.338282         3.080628         1.550940
 H        -0.526585         2.769918         0.729742
 H        -0.920527         2.903373         2.994304
 H        -1.103652         1.466307         4.044274
 H         1.221000         1.594934         2.330168
 H         0.559585         0.021251         3.037989
