19
Iteration:  4713charge 0 multiplicity 1
 O         0.513598        -0.157080         0.038877
 C        -0.269839         0.436717         1.081257
 C        -1.690491         0.086218         1.461767
 C        -1.795198         1.597730         1.876463
 C        -3.036768         2.084167         1.240782
 O        -2.247271         2.066162        -0.033411
 C        -0.920479         1.887955         0.722973
 C        -0.913485         1.449056         3.130772
 C         0.371481         0.784810         2.524326
 H         0.467019         0.417304        -0.780958
 H        -2.243613        -0.257642         0.560791
 H        -1.861907        -0.554419         2.357412
 H        -3.951110         1.443026         1.171491
 H        -3.430345         3.141131         1.571958
 H        -0.271616         2.928472         0.666333
 H        -0.613175         2.472185         3.447653
 H        -1.453893         0.906482         3.977647
 H         1.161985         1.502395         2.391491
 H         0.832919        -0.074251         2.999868
