19
Iteration:  4137charge 0 multiplicity 1
 O         0.532664        -0.112286         0.071685
 C        -0.362784         0.480356         1.006355
 C        -1.717813        -0.115988         1.444356
 C        -1.862011         1.355813         1.989715
 C        -2.981207         2.225904         1.208985
 O        -2.162094         2.086664         0.016098
 C        -0.985065         1.780951         0.745243
 C        -0.865718         1.609769         3.099715
 C         0.319674         0.863031         2.441361
 H         0.883368         0.639083        -0.414777
 H        -2.324428        -0.324914         0.543786
 H        -1.747569        -0.906952         2.171293
 H        -3.985365         1.753319         0.939997
 H        -3.211036         3.126916         1.629867
 H        -0.295180         2.560872         0.720830
 H        -0.785394         2.709942         3.166796
 H        -1.225968         1.275789         4.080057
 H         1.330912         1.502082         2.382036
 H         0.727164         0.063258         3.059868
