19
Iteration:   346charge 0 multiplicity 1
 O         0.634874        -0.250960         0.153177
 C        -0.228422         0.456394         1.037540
 C        -1.533749        -0.038837         1.448014
 C        -1.780446         1.474339         1.902678
 C        -3.059246         2.078726         1.373293
 O        -2.507534         1.861107         0.020306
 C        -1.070225         1.801070         0.661765
 C        -0.872986         1.727484         3.038407
 C         0.419641         1.124495         2.375072
 H         0.889383         0.444597        -0.475900
 H        -2.274545        -0.176595         0.593159
 H        -1.627183        -0.942009         2.074994
 H        -3.982638         1.499357         1.611610
 H        -3.159121         3.185038         1.609759
 H        -0.592555         2.715969         0.404246
 H        -0.760856         2.798328         3.281234
 H        -1.219255         1.239518         3.967051
 H         1.130457         1.987841         2.111566
 H         0.897440         0.378466         2.920924
