19
Iteration:  4085
 O         0.442617        -0.248025         0.088140
 C        -0.232899         0.535242         1.031314
 C        -1.609920         0.020082         1.314288
 C        -1.806503         1.492667         1.962148
 C        -3.039513         2.116234         1.244456
 O        -2.276890         2.077839         0.007089
 C        -0.920426         1.905173         0.681857
 C        -0.958603         1.481851         3.247451
 C         0.371074         0.953071         2.367228
 H         1.331123        -0.545090         0.409196
 H        -2.176307        -0.034127         0.345389
 H        -1.779621        -0.798626         2.018228
 H        -3.866987         1.526695         1.413568
 H        -3.410335         3.244616         1.556820
 H        -0.229262         2.778531         0.350565
 H        -0.831721         2.445698         3.914184
 H        -1.400982         0.648972         3.786217
 H         1.186378         1.764598         2.412405
 H         0.719837         0.034561         2.991552
