19
Iteration:  2254charge 0 multiplicity 1
 O         0.642948        -0.147158         0.171092
 C        -0.230512         0.545729         0.991773
 C        -1.640637        -0.006842         1.488950
 C        -1.767415         1.445648         1.957685
 C        -3.067962         2.134549         1.361874
 O        -2.434677         1.845153        -0.011496
 C        -1.058499         1.850075         0.613171
 C        -0.835272         1.608018         3.113984
 C         0.406711         1.038277         2.325061
 H         0.150244        -0.357034        -0.656211
 H        -2.464048        -0.305320         0.829504
 H        -1.416979        -0.729711         2.255485
 H        -4.045959         1.563611         1.644063
 H        -3.184231         3.275012         1.533234
 H        -0.459115         2.828088         0.268162
 H        -0.718006         2.683835         3.348161
 H        -1.192263         1.074001         3.995885
 H         1.251455         1.649668         2.106800
 H         0.907516         0.151833         2.806539
