19
Iteration:  3534charge 0 multiplicity 1
 O         0.684887        -0.057210         0.091637
 C        -0.341178         0.526832         0.980174
 C        -1.700421        -0.040387         1.506471
 C        -1.889851         1.417727         1.985743
 C        -2.998577         2.089699         1.302615
 O        -2.295250         1.960872        -0.034503
 C        -1.045168         1.836093         0.793139
 C        -0.835075         1.630140         3.088053
 C         0.368952         0.901541         2.341626
 H         0.252284        -0.737519        -0.402516
 H        -2.399040        -0.249690         0.722812
 H        -1.613550        -0.863205         2.202764
 H        -4.003796         1.665686         1.170191
 H        -3.136280         3.222266         1.565547
 H        -0.484313         2.822042         0.477820
 H        -0.603511         2.709091         3.053620
 H        -0.923333         1.356893         4.168195
 H         1.101702         1.552703         2.072957
 H         0.711524         0.115489         2.994974
