19
Iteration:   545charge 0 multiplicity 1
 O         0.578101        -0.193738         0.090866
 C        -0.338484         0.538210         0.944257
 C        -1.586521        -0.080320         1.670403
 C        -1.828251         1.443538         1.983735
 C        -3.118499         1.900426         1.218606
 O        -2.340266         1.990088         0.002549
 C        -1.039281         1.882152         0.671549
 C        -0.781010         1.752236         3.119305
 C         0.381150         0.994703         2.293755
 H         0.972685         0.559101        -0.416547
 H        -2.321176        -0.362794         0.953292
 H        -1.465635        -0.674665         2.601859
 H        -3.896664         1.150607         1.120185
 H        -3.660103         2.842855         1.501745
 H        -0.303581         2.804125         0.537733
 H        -0.596729         2.847211         3.196797
 H        -0.999209         1.445555         4.113656
 H         1.185341         1.707546         2.157687
 H         0.842249         0.151823         2.830505
