19
Iteration:  3092
 O         0.628299        -0.162104         0.133165
 C        -0.247627         0.510614         1.014069
 C        -1.662836        -0.007246         1.580542
 C        -1.895379         1.397826         1.954215
 C        -3.091591         2.001098         1.276724
 O        -2.303992         2.041030         0.027650
 C        -1.058316         1.808966         0.699032
 C        -0.772543         1.703015         3.042752
 C         0.383516         0.978944         2.271884
 H         0.355343        -0.315875        -0.747907
 H        -2.381971        -0.231403         0.787886
 H        -1.783097        -0.668112         2.408045
 H        -3.937383         1.320715         1.333534
 H        -3.415014         3.007464         1.449666
 H        -0.525846         2.736202         0.749205
 H        -0.714543         2.827244         3.298457
 H        -0.874818         1.188413         4.040024
 H         1.191198         1.678214         2.019886
 H         0.874449         0.067335         2.931736
