19
Iteration:  3242
 O         0.572237        -0.122903         0.147431
 C        -0.306642         0.521752         1.015069
 C        -1.696721        -0.023942         1.550559
 C        -1.807191         1.437459         1.988533
 C        -2.999497         2.036453         1.272633
 O        -2.293662         1.918166        -0.005453
 C        -1.017405         1.868163         0.694172
 C        -0.839228         1.585839         3.111018
 C         0.362776         1.059476         2.260712
 H         0.205863        -0.356098        -0.679627
 H        -2.378891        -0.398429         0.740765
 H        -1.624525        -0.639242         2.466984
 H        -4.012194         1.507071         1.385621
 H        -3.128759         3.200136         1.413987
 H        -0.264149         2.751547         0.515293
 H        -0.689161         2.608103         3.314063
 H        -1.111122         0.965631         3.975244
 H         1.044047         1.863612         2.142906
 H         0.986124         0.339772         2.657030
