19
Iteration:  4481charge 0 multiplicity 1
 O         0.489090        -0.245853         0.036202
 C        -0.290862         0.520598         0.992377
 C        -1.589626        -0.118815         1.478669
 C        -1.861180         1.381084         1.936757
 C        -2.971900         2.168229         1.228713
 O        -2.248170         2.262895        -0.013146
 C        -0.977891         1.888757         0.717835
 C        -0.976861         1.482209         3.198006
 C         0.349911         0.977201         2.361562
 H         0.892417        -0.887451         0.620241
 H        -2.204587        -0.569962         0.697535
 H        -1.416392        -0.849688         2.233543
 H        -3.965213         1.732977         1.213921
 H        -3.161191         3.171375         1.561875
 H        -0.233306         2.751201         0.477582
 H        -0.834260         2.454480         3.552531
 H        -1.172022         0.875866         4.067607
 H         1.124544         1.687183         2.252067
 H         0.767754         0.171389         2.890179
