19
Iteration:  2352charge 0 multiplicity 1
 O         0.613395        -0.243322         0.189880
 C        -0.178596         0.573281         0.980817
 C        -1.574465        -0.064005         1.434657
 C        -1.792320         1.467997         1.971353
 C        -3.051215         1.997852         1.341976
 O        -2.447853         2.005045         0.034082
 C        -1.082381         1.910233         0.591165
 C        -0.836950         1.728990         3.060359
 C         0.405284         0.968753         2.351543
 H         0.020553        -0.614407        -0.464005
 H        -2.358699        -0.150909         0.675096
 H        -1.520184        -0.967437         2.066509
 H        -4.010017         1.409908         1.504204
 H        -3.408701         2.930921         1.663730
 H        -0.560972         2.783810         0.661001
 H        -0.675546         2.813941         3.049753
 H        -0.986311         1.275794         4.031572
 H         1.344922         1.654924         2.333507
 H         0.673461         0.071362         3.025982
