19
Iteration:  2407
 O         0.623481        -0.049463         0.111565
 C        -0.315171         0.472597         1.020372
 C        -1.704057        -0.114703         1.560001
 C        -1.814872         1.505034         1.983746
 C        -2.993466         2.143684         1.310354
 O        -2.321094         1.877434        -0.038119
 C        -1.036714         1.729967         0.684841
 C        -0.824300         1.575519         3.136219
 C         0.351901         1.109108         2.255701
 H         0.154154        -0.094614        -0.695605
 H        -2.481504        -0.462552         0.879615
 H        -1.677560        -0.778462         2.445054
 H        -4.113896         1.880973         1.413025
 H        -2.752115         3.187952         1.487028
 H        -0.376131         2.464921         0.454494
 H        -0.691791         2.522047         3.661584
 H        -1.028010         0.910798         3.978382
 H         0.912929         2.068209         1.886746
 H         1.093694         0.386221         2.812260
