19
Iteration:  2959
 O         0.581878        -0.245868         0.064912
 C        -0.194751         0.502709         0.993292
 C        -1.557974        -0.046257         1.483016
 C        -1.838842         1.468189         2.010829
 C        -3.043210         2.042734         1.303085
 O        -2.390755         1.987274         0.012282
 C        -1.042691         1.878689         0.641629
 C        -0.864942         1.785256         3.190753
 C         0.385699         0.975936         2.356496
 H         0.142283        -0.273204        -0.789994
 H        -2.233349        -0.265197         0.655797
 H        -1.604748        -0.911378         2.082966
 H        -3.849447         1.270590         1.225581
 H        -3.582254         2.997290         1.599733
 H        -0.440469         2.774036         0.206128
 H        -0.652726         2.880772         3.387700
 H        -1.156983         1.205212         4.150564
 H         1.267816         1.561054         2.466803
 H         0.771280         0.003398         2.945752
