19
Iteration:  4807charge 0 multiplicity 1
 O         0.549760        -0.167542         0.141077
 C        -0.335422         0.601635         0.960048
 C        -1.674225         0.002224         1.398131
 C        -1.733207         1.484485         1.895246
 C        -2.948281         2.199525         1.331385
 O        -2.287395         1.980095         0.007581
 C        -0.991316         1.935425         0.664064
 C        -0.920310         1.483470         3.147293
 C         0.280857         0.831223         2.349578
 H         1.125553        -0.481784         0.815783
 H        -2.334688        -0.248573         0.607729
 H        -1.610155        -0.747282         2.196521
 H        -3.973590         1.809576         1.365176
 H        -2.983738         3.248413         1.511595
 H        -0.351171         2.897284         0.570023
 H        -0.760391         2.438577         3.585632
 H        -1.372136         0.741924         3.842777
 H         1.235578         1.426229         2.343764
 H         0.523721        -0.145705         2.738332
