19
Iteration:  4935charge 0 multiplicity 1
 O         0.643015        -0.169060         0.280590
 C        -0.348830         0.504755         0.912490
 C        -1.672698        -0.048968         1.432216
 C        -1.740791         1.478797         1.875371
 C        -2.948594         2.240540         1.399133
 O        -2.329797         2.092659        -0.001938
 C        -0.943679         1.831881         0.581754
 C        -0.941904         1.484273         3.117764
 C         0.260952         0.866241         2.372888
 H         0.750173         0.039026        -0.692832
 H        -2.515601        -0.246459         0.783632
 H        -1.843761        -0.911323         2.106570
 H        -3.856235         1.714122         1.536512
 H        -3.087185         3.340663         1.431020
 H        -0.351369         2.644327         0.413930
 H        -0.816356         2.390616         3.744323
 H        -1.269845         0.822662         3.876288
 H         1.091719         1.578876         2.170026
 H         0.752793        -0.046058         2.789422
