19
Iteration:  4630
 O         0.628667        -0.282618         0.094205
 C        -0.318332         0.501011         0.946081
 C        -1.663905        -0.011547         1.412149
 C        -1.785964         1.486956         1.929877
 C        -3.004386         2.060689         1.296887
 O        -2.263940         2.251207         0.018135
 C        -0.952321         1.979477         0.652794
 C        -0.939028         1.512000         3.185707
 C         0.299022         0.882959         2.399847
 H         0.349761        -1.123494         0.426515
 H        -2.426770        -0.187192         0.590931
 H        -1.726389        -0.893908         2.134552
 H        -3.859824         1.377353         1.146194
 H        -3.341276         3.028275         1.717376
 H        -0.427851         2.874443         0.657278
 H        -0.871675         2.592262         3.618044
 H        -1.239419         0.718918         3.910601
 H         1.124690         1.622920         2.139547
 H         0.805444        -0.041056         2.888123
