19
Iteration:  3704
 O         0.508105        -0.129121         0.053968
 C        -0.285231         0.536854         1.037500
 C        -1.651346        -0.028241         1.590379
 C        -1.849796         1.474714         2.022265
 C        -3.026838         2.119004         1.134751
 O        -2.219474         2.014185        -0.016593
 C        -1.034103         1.827179         0.778418
 C        -0.926843         1.585971         3.135651
 C         0.435035         0.889967         2.328885
 H         0.171147        -0.130613        -0.886194
 H        -2.348760        -0.352815         0.800906
 H        -1.468685        -0.899397         2.294109
 H        -3.910949         1.309812         1.157983
 H        -3.361403         3.112030         1.439776
 H        -0.277665         2.784330         0.726962
 H        -0.566366         2.638742         3.330011
 H        -1.030901         1.109466         4.087976
 H         1.222462         1.689347         2.228931
 H         0.858344         0.106084         2.801732
