19
Iteration:  1341charge 0 multiplicity 1
 O         0.650745        -0.142344         0.123110
 C        -0.340755         0.586212         0.956348
 C        -1.543386         0.015649         1.545447
 C        -1.814500         1.472172         1.981780
 C        -3.045908         2.065905         1.306358
 O        -2.484270         1.830607        -0.021190
 C        -1.066058         1.843729         0.529231
 C        -0.818934         1.626453         3.121767
 C         0.443033         1.066613         2.384384
 H         0.609258        -1.015345         0.528332
 H        -2.308336        -0.337208         0.779879
 H        -1.514786        -0.718172         2.384840
 H        -4.061860         1.543624         1.500601
 H        -2.847251         3.093740         1.546455
 H        -0.537416         2.832885         0.379311
 H        -0.675085         2.724760         3.359364
 H        -1.191059         1.201219         4.067192
 H         1.040457         1.838123         2.010306
 H         0.893803         0.094632         2.814759
