19
Iteration:  3276charge 0 multiplicity 1
 O         0.582823        -0.033928         0.080675
 C        -0.274233         0.590284         0.995727
 C        -1.620040        -0.006002         1.573403
 C        -1.834629         1.540217         1.953184
 C        -3.024150         2.084746         1.198874
 O        -2.428419         1.843024        -0.068481
 C        -1.044400         1.847206         0.697520
 C        -0.736966         1.553786         3.211722
 C         0.422764         0.904580         2.389249
 H         0.075684        -0.688219        -0.387892
 H        -2.181176        -0.461996         0.747971
 H        -1.594457        -0.690761         2.450002
 H        -4.058783         1.723594         1.347216
 H        -2.998801         3.259573         1.056853
 H        -0.588020         2.868998         0.349699
 H        -0.638248         2.573837         3.498945
 H        -1.146957         1.091175         4.128134
 H         1.215350         1.568806         2.416869
 H         0.622754         0.024618         2.871446
