19
Iteration:  4913
 O         0.645051        -0.273504         0.233919
 C        -0.308575         0.531597         0.989056
 C        -1.739544         0.068723         1.362546
 C        -1.803713         1.496899         1.949539
 C        -2.998263         2.162673         1.303785
 O        -2.325498         2.014139         0.014116
 C        -0.971039         1.931521         0.662881
 C        -0.887331         1.492370         3.160080
 C         0.343590         0.867675         2.324999
 H         0.746534         0.022892        -0.659367
 H        -2.321267        -0.045771         0.465401
 H        -2.024568        -0.762861         2.107260
 H        -3.968904         1.735175         1.183618
 H        -3.116044         3.274587         1.486806
 H        -0.461212         2.831487         0.658286
 H        -0.498341         2.362153         3.660395
 H        -1.158358         0.924289         3.992025
 H         1.127851         1.650854         2.276851
 H         0.777571        -0.073102         2.743533
