19
Iteration:  4603
 O         0.471988        -0.201286         0.113346
 C        -0.287021         0.550283         1.003561
 C        -1.620873         0.028434         1.408249
 C        -1.865303         1.459200         1.970948
 C        -3.104183         2.137206         1.154072
 O        -2.181320         2.109138         0.018032
 C        -0.989729         1.962879         0.796003
 C        -0.825983         1.446544         3.158923
 C         0.377007         0.871005         2.338811
 H         0.585559        -0.992970         0.625955
 H        -2.263365        -0.167529         0.577599
 H        -1.703445        -0.823703         2.099515
 H        -4.028480         1.611573         0.972909
 H        -3.315363         3.181537         1.391574
 H        -0.507918         3.006909         0.936893
 H        -0.763136         2.418083         3.480745
 H        -0.992136         0.696639         3.886236
 H         1.196267         1.516819         2.151458
 H         0.772398        -0.039097         2.717985
