19
Iteration:  3110
 O         0.511459        -0.116061         0.048414
 C        -0.324427         0.519475         1.007097
 C        -1.554858        -0.186519         1.550319
 C        -1.776990         1.476303         1.978256
 C        -3.002085         2.072359         1.268411
 O        -2.330259         1.972973        -0.050628
 C        -1.020123         1.826131         0.711160
 C        -0.872228         1.670976         3.134585
 C         0.403895         1.055387         2.382011
 H         0.014061        -0.558101        -0.603845
 H        -2.431076        -0.417927         0.865142
 H        -1.427063        -0.945530         2.389065
 H        -3.939100         1.518015         1.153934
 H        -3.154263         3.093881         1.708704
 H        -0.225807         2.645439         0.536714
 H        -0.708160         2.723905         3.284915
 H        -1.296809         1.275449         4.102700
 H         1.101315         1.866444         2.147850
 H         0.767910         0.270745         2.977888
