19
Iteration:  2280
 O         0.549591        -0.124842         0.038443
 C        -0.260013         0.556229         1.021608
 C        -1.600459        -0.074762         1.557687
 C        -1.792086         1.467890         2.019285
 C        -2.986354         2.178408         1.235301
 O        -2.337452         1.750712        -0.023159
 C        -1.099702         1.816288         0.715375
 C        -0.862716         1.624003         3.180761
 C         0.399578         1.107729         2.333207
 H         0.035656        -0.059240        -0.815186
 H        -2.327456        -0.319232         0.805041
 H        -1.453332        -0.856628         2.307884
 H        -3.962553         1.850140         1.487651
 H        -2.971762         3.313116         1.451330
 H        -0.522467         2.720703         0.464830
 H        -0.715110         2.637733         3.569509
 H        -1.288462         0.916719         3.895229
 H         1.098247         1.824856         2.038843
 H         0.971757         0.231762         2.706181
