19
Iteration:  3951charge 0 multiplicity 1
 O         0.628427        -0.165693         0.139652
 C        -0.302851         0.510718         1.032791
 C        -1.672282        -0.063037         1.473734
 C        -1.839745         1.450443         1.917631
 C        -2.974960         2.092478         1.248543
 O        -2.183245         2.205674        -0.006378
 C        -1.012901         1.842616         0.718258
 C        -0.947252         1.489962         3.114854
 C         0.291147         0.911239         2.328371
 H         0.041131        -0.582087        -0.490987
 H        -2.396772        -0.314672         0.727864
 H        -1.682379        -0.757192         2.311755
 H        -3.926950         1.563584         1.174093
 H        -3.354479         3.071185         1.827065
 H        -0.335249         2.826821         0.729241
 H        -0.674017         2.486370         3.514968
 H        -1.250053         0.820155         3.971616
 H         0.915234         1.683942         2.173361
 H         0.892389         0.147828         2.828742
