19
Iteration:  3837
 O         0.484594        -0.168669         0.060213
 C        -0.282087         0.558182         1.039103
 C        -1.556632        -0.100398         1.499487
 C        -1.884042         1.374294         1.983009
 C        -2.973392         2.166443         1.200966
 O        -2.169246         2.047496        -0.034685
 C        -1.034659         1.883606         0.797711
 C        -0.919104         1.553739         3.131915
 C         0.364690         0.962255         2.368797
 H        -0.239923        -0.378944        -0.585231
 H        -2.244015        -0.284356         0.649969
 H        -1.652587        -0.923880         2.242992
 H        -4.067739         1.715722         0.964406
 H        -3.171747         3.208878         1.510794
 H        -0.311449         2.743444         0.850323
 H        -0.802653         2.639232         3.373961
 H        -1.069166         1.019293         4.080791
 H         1.198515         1.662860         2.222539
 H         0.581716         0.151058         2.941461
