19
Iteration:  2512
 O         0.650907        -0.194648         0.192565
 C        -0.286561         0.563893         0.934064
 C        -1.559905        -0.101393         1.523865
 C        -1.895910         1.331705         1.990303
 C        -2.959039         2.287219         1.383691
 O        -2.396609         1.871663        -0.000225
 C        -1.046200         1.834521         0.587599
 C        -0.930089         1.580353         3.155465
 C         0.358999         1.094583         2.236027
 H         0.295444        -0.338651        -0.649647
 H        -2.255979        -0.541256         0.759473
 H        -1.198958        -0.830640         2.303823
 H        -4.032219         2.219813         1.369783
 H        -2.760997         3.438786         1.561342
 H        -0.511499         2.827083         0.751765
 H        -0.847211         2.632164         3.496307
 H        -1.129693         0.749770         3.863580
 H         1.010975         1.896628         1.913886
 H         1.019054         0.406130         2.735884
