19
Iteration:  1387
 O         0.530028        -0.123941         0.085887
 C        -0.245383         0.476960         1.004867
 C        -1.634170        -0.086923         1.582160
 C        -1.855615         1.373273         1.994363
 C        -3.024264         2.022209         1.283911
 O        -2.401495         1.968548        -0.036603
 C        -1.055688         1.792060         0.683830
 C        -0.789710         1.786037         3.071579
 C         0.382583         1.006663         2.333366
 H         1.484236         0.158409         0.247798
 H        -2.388108        -0.465431         0.878825
 H        -1.466815        -0.812078         2.363400
 H        -3.969226         1.349499         1.090530
 H        -3.104708         3.093696         1.468584
 H        -0.462765         2.708699         0.481858
 H        -0.667312         2.838875         2.955834
 H        -0.836904         1.563505         4.168519
 H         1.092852         1.824665         2.044387
 H         0.754588         0.168433         2.972511
