19
Iteration:  3141
 O         0.553690        -0.138763        -0.001353
 C        -0.237266         0.635161         1.036217
 C        -1.619054        -0.040165         1.576084
 C        -1.858224         1.492528         1.968206
 C        -2.965760         2.158002         1.256414
 O        -2.327480         1.777220        -0.053604
 C        -1.075423         1.867427         0.761972
 C        -0.866308         1.562088         3.141026
 C         0.431787         1.043698         2.324912
 H        -0.050676        -0.826827        -0.465429
 H        -2.380510        -0.405344         0.861835
 H        -1.603701        -0.650102         2.524222
 H        -4.100798         1.783199         1.151618
 H        -2.932718         3.281152         1.572125
 H        -0.475850         2.958387         0.710079
 H        -0.797362         2.530646         3.517194
 H        -1.189550         0.926141         3.941266
 H         1.324946         1.698054         2.303967
 H         0.710301         0.252984         2.890258
