19
Iteration:  2645
 O         0.613358        -0.123971         0.258639
 C        -0.358468         0.526988         1.000952
 C        -1.601284        -0.042957         1.530777
 C        -1.806575         1.430992         1.978395
 C        -2.985570         2.245586         1.232571
 O        -2.435955         1.911678        -0.069493
 C        -1.110353         1.796409         0.632927
 C        -0.759270         1.461409         3.178336
 C         0.398004         1.074724         2.285213
 H         0.343824        -0.191001        -0.637016
 H        -2.337257        -0.194392         0.721852
 H        -1.474558        -0.848266         2.339037
 H        -3.859086         1.736361         1.261539
 H        -2.963524         3.352796         1.484886
 H        -0.503123         2.659788         0.555924
 H        -0.486295         2.415133         3.685300
 H        -1.079204         0.707206         3.963213
 H         0.961534         2.018698         1.936728
 H         1.072917         0.210971         2.509934
