19
Iteration:   109
 O         0.702650         0.048820         0.077534
 C        -0.259782         0.519764         0.993648
 C        -1.667258        -0.075186         1.721939
 C        -1.843227         1.501659         1.998658
 C        -3.224067         2.017662         1.232628
 O        -2.389534         1.765628         0.016282
 C        -1.079486         1.722445         0.635994
 C        -0.773757         1.759865         3.079079
 C         0.468746         1.091503         2.230263
 H         0.562994        -0.846813        -0.161417
 H        -2.402609        -0.595034         1.116189
 H        -1.480231        -0.706726         2.547677
 H        -4.075832         1.390652         1.409031
 H        -3.608760         3.071946         1.414054
 H        -0.370034         2.475952         0.249585
 H        -0.532958         2.873902         3.342720
 H        -0.859030         1.291076         4.040527
 H         1.314170         1.680881         1.863760
 H         0.824039         0.275987         2.880472
