19
Iteration:  2743
 O         0.593953        -0.114022         0.082283
 C        -0.320633         0.543266         0.962732
 C        -1.657795        -0.048543         1.598678
 C        -1.794814         1.514076         1.987382
 C        -3.058683         2.053321         1.253642
 O        -2.277480         1.927341        -0.005657
 C        -1.006858         1.850525         0.661067
 C        -0.852818         1.639653         3.184542
 C         0.374964         0.980679         2.307904
 H         0.046053        -0.413565        -0.673265
 H        -2.375771        -0.364617         0.808396
 H        -1.583805        -0.792595         2.458934
 H        -3.836631         1.275659         1.070607
 H        -3.416248         3.034696         1.532347
 H        -0.451667         2.731201         0.526302
 H        -0.722028         2.703882         3.370234
 H        -1.167811         1.078656         4.089509
 H         1.304433         1.680300         2.145004
 H         0.780837         0.052571         2.887881
