19
Iteration:  4077
 O         0.487630        -0.215763         0.125346
 C        -0.269965         0.531014         0.998778
 C        -1.604013         0.018817         1.294337
 C        -1.811689         1.483397         1.980436
 C        -2.990810         2.140322         1.321549
 O        -2.306296         2.099398        -0.029886
 C        -0.930841         1.845878         0.731145
 C        -0.931393         1.516308         3.178758
 C         0.301536         0.925995         2.379695
 H         1.317923        -0.624241         0.508438
 H        -2.176633        -0.093810         0.355815
 H        -1.643274        -0.944848         1.864835
 H        -3.865383         1.425681         1.149717
 H        -3.231349         3.239190         1.660864
 H        -0.185735         2.717469         0.437511
 H        -0.773862         2.432306         3.752308
 H        -1.286153         0.755770         3.895598
 H         0.904992         1.687116         2.150046
 H         0.715068         0.124379         2.990848
