19
Iteration:   507charge 0 multiplicity 1
 O         0.502389        -0.285279         0.102542
 C        -0.158642         0.556438         0.965155
 C        -1.490997        -0.050357         1.430204
 C        -1.822108         1.371540         1.960048
 C        -3.061843         2.113936         1.301419
 O        -2.445557         1.848737         0.035847
 C        -1.057937         1.902445         0.648724
 C        -0.907183         1.651508         3.167613
 C         0.386010         1.167479         2.358465
 H         1.390005        -0.094401        -0.122537
 H        -2.260192        -0.420673         0.704793
 H        -1.486009        -0.891298         2.128584
 H        -4.153394         1.790264         1.443301
 H        -3.012921         3.189927         1.523243
 H        -0.630670         2.917287         0.421292
 H        -0.732833         2.720769         3.189543
 H        -1.027224         1.144631         4.201752
 H         1.146995         2.033617         2.238506
 H         1.034851         0.417172         2.988481
