19
Iteration:  2963
 O         0.571187        -0.224163         0.059051
 C        -0.187226         0.517248         0.986504
 C        -1.535988        -0.036505         1.500563
 C        -1.822793         1.484839         2.048502
 C        -3.038228         2.054631         1.292595
 O        -2.375503         1.990334         0.006436
 C        -1.056193         1.836903         0.658839
 C        -0.880844         1.774311         3.178393
 C         0.387590         0.942287         2.355404
 H         0.049289        -0.376243        -0.764174
 H        -2.250159        -0.194759         0.662571
 H        -1.587335        -0.925234         2.184482
 H        -3.841667         1.186761         1.169185
 H        -3.660303         2.979714         1.441423
 H        -0.491385         2.822561         0.324416
 H        -0.678007         2.817675         3.380565
 H        -1.174145         1.225090         4.012047
 H         1.283878         1.587544         2.298257
 H         0.664416         0.126046         2.911202
