19
Iteration:  3740
 O         0.464892        -0.089105         0.025694
 C        -0.288180         0.485212         1.007370
 C        -1.590497        -0.087781         1.491337
 C        -1.853620         1.410141         1.965447
 C        -2.914197         2.163996         1.260052
 O        -2.262113         2.008981        -0.026224
 C        -0.991359         1.851542         0.707288
 C        -0.923958         1.580257         3.159876
 C         0.374843         0.979102         2.402658
 H         0.234547        -1.069232         0.094503
 H        -2.280454        -0.337706         0.703793
 H        -1.427609        -0.892679         2.192780
 H        -3.874593         1.649280         1.220730
 H        -3.109530         3.200445         1.614348
 H        -0.440563         2.809339         0.514881
 H        -0.870568         2.679737         3.292804
 H        -1.356661         1.156999         4.080633
 H         1.085530         1.814257         2.301850
 H         0.876811         0.077811         2.970560
