19
Iteration:  3181charge 0 multiplicity 1
 O         0.652397        -0.167513         0.245809
 C        -0.344680         0.493100         0.928802
 C        -1.650976        -0.098154         1.548196
 C        -1.778033         1.459085         1.962685
 C        -3.056826         2.004783         1.331193
 O        -2.384686         2.062584        -0.027333
 C        -1.037309         1.867361         0.632503
 C        -0.797832         1.693890         3.062395
 C         0.367744         0.979519         2.306303
 H         0.546974        -0.059947        -0.681318
 H        -2.456005        -0.310213         0.869535
 H        -1.609647        -0.852701         2.336339
 H        -3.911562         1.360786         1.480208
 H        -3.281436         2.986627         1.589424
 H        -0.424097         2.656314         0.406988
 H        -0.530818         2.777684         3.378078
 H        -0.972551         1.149458         4.007940
 H         1.198501         1.692429         2.069138
 H         0.568897        -0.122391         2.698974
