19
Iteration:  3513charge 0 multiplicity 1
 O         0.643343        -0.119548         0.204263
 C        -0.333333         0.446317         1.040715
 C        -1.673601        -0.121721         1.528011
 C        -1.807800         1.401820         1.896878
 C        -3.014323         2.147623         1.277090
 O        -2.348148         2.078968         0.004748
 C        -1.048777         1.777189         0.628523
 C        -0.828698         1.610026         3.142717
 C         0.388585         1.035211         2.313072
 H         0.452790        -0.135184        -0.769606
 H        -2.317584        -0.347330         0.696486
 H        -1.643376        -0.923914         2.276564
 H        -4.024196         1.606844         1.315810
 H        -3.257899         3.258174         1.496156
 H        -0.519988         2.760745         0.507019
 H        -0.724668         2.571685         3.628448
 H        -1.004935         0.791834         3.908467
 H         1.061076         1.736690         1.940117
 H         0.909491         0.165830         2.651558
