19
Iteration:  4905charge 0 multiplicity 1
 O         0.614012        -0.281862         0.201404
 C        -0.235699         0.529166         0.973671
 C        -1.660071         0.042338         1.424787
 C        -1.854322         1.478926         1.967032
 C        -3.048677         2.208149         1.224511
 O        -2.306076         2.055527        -0.015356
 C        -1.015262         1.884882         0.733130
 C        -0.841712         1.501689         3.187830
 C         0.328421         0.873620         2.349004
 H         0.547388        -0.006633        -0.712649
 H        -2.261990         0.046950         0.493762
 H        -2.017568        -0.950239         1.969653
 H        -4.041284         1.639320         1.301679
 H        -3.162024         3.361565         1.437296
 H        -0.432064         2.899903         0.717458
 H        -0.681725         2.513241         3.519670
 H        -1.140645         0.816888         3.986164
 H         1.267610         1.516793         2.185950
 H         0.762503        -0.052850         2.723782
