19
Iteration:  2632charge 0 multiplicity 1
 O         0.615416        -0.141225         0.191830
 C        -0.295569         0.573889         0.963926
 C        -1.649470        -0.099487         1.529355
 C        -1.825212         1.486783         1.973262
 C        -2.961653         2.129037         1.321940
 O        -2.318611         1.905955        -0.006095
 C        -1.056213         1.855595         0.654491
 C        -0.852411         1.564391         3.130789
 C         0.318707         1.023157         2.232165
 H         0.100726        -0.422282        -0.632676
 H        -2.352230        -0.527700         0.795655
 H        -1.552753        -0.896049         2.331165
 H        -4.032902         1.935738         1.487007
 H        -2.939339         3.201694         1.446638
 H        -0.619916         2.791010         0.573407
 H        -0.682095         2.615752         3.499151
 H        -1.117835         0.847914         3.949789
 H         1.013302         1.916172         2.053853
 H         1.134379         0.290608         2.767665
