19
Iteration:  3070charge 0 multiplicity 1
 O         0.671496        -0.231387         0.274917
 C        -0.368924         0.513382         0.977383
 C        -1.630956        -0.108568         1.479489
 C        -1.809931         1.491305         1.962583
 C        -3.113596         2.049885         1.283181
 O        -2.409041         2.019993        -0.005540
 C        -1.110005         1.955767         0.669251
 C        -0.702123         1.672513         3.105004
 C         0.391151         0.948892         2.271739
 H         0.689990         0.057667        -0.706318
 H        -2.320955        -0.467932         0.713061
 H        -1.285938        -0.867736         2.130095
 H        -3.960115         1.326075         1.316008
 H        -3.483534         3.059272         1.456422
 H        -0.612392         2.958733         0.548997
 H        -0.443624         2.788824         3.312063
 H        -0.938970         1.238349         4.119136
 H         1.287578         1.539501         2.064301
 H         0.833406        -0.137494         2.672999
