19
Iteration:  4432charge 0 multiplicity 1
 O         0.590911        -0.008281        -0.022729
 C        -0.387983         0.524140         0.942981
 C        -1.730976        -0.025456         1.418216
 C        -1.784635         1.493788         1.970212
 C        -2.920505         2.185248         1.254625
 O        -2.207128         1.925449         0.010711
 C        -0.973195         1.822250         0.700793
 C        -0.903745         1.591819         3.240242
 C         0.224348         0.816395         2.442488
 H         0.939928        -0.879587         0.347572
 H        -2.605145        -0.112343         0.794263
 H        -1.583202        -0.991247         1.986988
 H        -3.962162         1.839492         1.232066
 H        -3.104348         3.279569         1.413078
 H        -0.227697         2.664945         0.712176
 H        -0.655552         2.657183         3.644983
 H        -1.154256         1.082807         4.195987
 H         1.141021         1.481694         2.348603
 H         0.627574        -0.197713         2.785131
