19
Iteration:  3638charge 0 multiplicity 1
 O         0.569013        -0.198920         0.091552
 C        -0.300601         0.494607         0.967397
 C        -1.617043        -0.110744         1.476270
 C        -1.867373         1.403023         1.950435
 C        -2.973319         2.187917         1.379811
 O        -2.369655         2.076306        -0.031933
 C        -1.029313         1.818830         0.667289
 C        -0.893220         1.586034         3.050823
 C         0.395704         1.011573         2.371871
 H         1.474689        -0.240780         0.373495
 H        -2.305365        -0.381291         0.626811
 H        -1.579647        -0.867153         2.304955
 H        -4.048784         1.668736         1.437854
 H        -2.998727         3.237244         1.532267
 H        -0.514497         2.734707         0.709847
 H        -0.856317         2.640310         3.465679
 H        -1.182132         0.887001         3.851587
 H         1.287094         1.735818         2.269193
 H         0.785039         0.243582         3.011101
