19
Iteration:   411charge 0 multiplicity 1
 O         0.450703        -0.079549        -0.014587
 C        -0.261784         0.579243         1.012919
 C        -1.536128        -0.072249         1.522581
 C        -1.779777         1.400166         2.007828
 C        -3.032741         1.951547         1.269915
 O        -2.346239         1.882850        -0.053546
 C        -1.060226         1.793310         0.653855
 C        -0.839826         1.766517         3.141823
 C         0.453456         1.090490         2.485506
 H         0.349997        -1.027542         0.029162
 H        -2.316568        -0.186363         0.719665
 H        -1.559593        -0.962271         2.132880
 H        -4.044000         1.483453         1.242378
 H        -3.276180         3.042927         1.497865
 H        -0.422471         2.735711         0.507953
 H        -0.908336         2.870458         3.117297
 H        -1.128811         1.412320         4.160021
 H         1.347987         1.784384         2.453003
 H         0.807088         0.277564         3.003395
