19
Iteration:   536
 O         0.491038        -0.195760         0.135301
 C        -0.218603         0.547060         1.018453
 C        -1.508063        -0.044801         1.598759
 C        -1.812602         1.408079         1.955094
 C        -3.097862         1.915150         1.238352
 O        -2.380448         2.003621        -0.031252
 C        -1.078105         1.867376         0.687316
 C        -0.794470         1.728754         3.050728
 C         0.372379         1.043600         2.305659
 H         1.026899         0.328235        -0.486042
 H        -2.288257        -0.462686         0.968054
 H        -1.407204        -0.731677         2.491599
 H        -3.903052         1.176145         1.321576
 H        -3.354696         2.954591         1.607149
 H        -0.573218         2.833774         0.653939
 H        -0.587770         2.780529         3.221291
 H        -0.961851         1.236501         3.999478
 H         1.239102         1.618092         2.207463
 H         0.518786         0.146730         3.006640
