19
Iteration:  3169charge 0 multiplicity 1
 O         0.636115        -0.103626         0.218783
 C        -0.361494         0.527433         1.018271
 C        -1.653671        -0.046844         1.492306
 C        -1.809730         1.522112         1.974314
 C        -3.050708         2.068416         1.282331
 O        -2.362345         1.952562        -0.012036
 C        -1.050234         1.801189         0.613901
 C        -0.721083         1.608326         3.173345
 C         0.326488         0.976225         2.261157
 H         0.218814        -0.246543        -0.680984
 H        -2.369017        -0.299165         0.701965
 H        -1.636083        -0.735977         2.321922
 H        -3.866118         1.435835         1.185211
 H        -3.374474         3.032049         1.561585
 H        -0.431406         2.589297         0.366432
 H        -0.459605         2.739993         3.329813
 H        -1.007424         1.099979         4.143786
 H         1.229267         1.591149         2.061086
 H         0.996467         0.121266         2.831744
