19
Iteration:  3292
 O         0.557399        -0.065385         0.112452
 C        -0.255146         0.583662         1.048104
 C        -1.560684        -0.037485         1.490978
 C        -1.821586         1.392309         1.978777
 C        -3.025932         2.152443         1.326179
 O        -2.351953         1.833279        -0.047287
 C        -1.060812         1.883390         0.646524
 C        -0.860350         1.687783         3.050381
 C         0.372071         0.900710         2.410944
 H         0.005804        -0.622895        -0.505992
 H        -2.335827        -0.219429         0.745305
 H        -1.409785        -0.792450         2.250098
 H        -3.981029         1.618810         1.255010
 H        -3.092006         3.152287         1.674594
 H        -0.548319         2.784418         0.605815
 H        -0.509388         2.818639         3.195557
 H        -1.104374         1.239234         4.033809
 H         1.361038         1.543764         2.333064
 H         0.711991        -0.170663         2.858980
