19
Iteration:  2064charge 0 multiplicity 1
 O         0.573409        -0.213636         0.200662
 C        -0.286489         0.495906         1.003236
 C        -1.655272        -0.026954         1.551345
 C        -1.767964         1.418511         1.956545
 C        -3.124281         1.956166         1.310485
 O        -2.356899         2.028103         0.000899
 C        -1.036357         1.905381         0.632675
 C        -0.797139         1.607545         3.113891
 C         0.471633         1.156773         2.256881
 H         0.039829        -0.615180        -0.481158
 H        -2.325713        -0.491985         0.804769
 H        -1.567744        -0.615462         2.536242
 H        -3.870714         1.209858         0.870891
 H        -3.541113         2.996717         1.404987
 H        -0.339978         2.864037         0.673054
 H        -0.873658         2.649389         3.429244
 H        -1.058866         0.979555         3.991339
 H         1.227452         1.793479         1.950544
 H         1.035532         0.431702         2.612578
