19
Iteration:  2805
 O         0.667485        -0.184685         0.205541
 C        -0.307465         0.493510         0.978022
 C        -1.642932        -0.111187         1.529219
 C        -1.830893         1.410007         1.951980
 C        -2.995685         2.091919         1.367089
 O        -2.379814         2.031073        -0.062524
 C        -1.086432         1.823399         0.651919
 C        -0.865333         1.680610         3.134596
 C         0.356902         1.019872         2.274712
 H         0.595190        -0.127429        -0.774102
 H        -2.299102        -0.365751         0.741428
 H        -1.432251        -0.868163         2.264411
 H        -4.050484         1.608381         1.193553
 H        -2.887661         3.160360         1.881914
 H        -0.467963         2.842052         0.545683
 H        -0.709728         2.749234         3.369414
 H        -0.927627         1.075919         4.067084
 H         1.025745         1.690614         1.864652
 H         0.846186         0.183751         2.823232
