19
Iteration:  3479charge 0 multiplicity 1
 O         0.530867        -0.386475         0.173593
 C        -0.272942         0.642585         0.899227
 C        -1.560318        -0.052074         1.443296
 C        -1.808459         1.430661         1.896189
 C        -3.052628         2.120800         1.288474
 O        -2.357201         1.992071         0.036377
 C        -1.072734         1.917377         0.679141
 C        -0.873425         1.559178         3.194996
 C         0.405871         1.073680         2.366775
 H         1.008513         0.136087        -0.480911
 H        -2.150437        -0.337317         0.574993
 H        -1.445373        -0.845705         2.143464
 H        -3.977752         1.551061         1.175570
 H        -3.155267         3.291254         1.574714
 H        -0.607492         2.974201         0.635055
 H        -0.889136         2.600280         3.625949
 H        -1.063444         0.898635         4.076577
 H         1.124368         1.800543         2.126399
 H         1.023085         0.317015         2.885940
