19
Iteration:  2620charge 0 multiplicity 1
 O         0.619050        -0.158045         0.081524
 C        -0.327664         0.481545         0.952762
 C        -1.624210        -0.034219         1.515797
 C        -1.831584         1.395830         1.958165
 C        -3.026734         2.155190         1.350057
 O        -2.320910         1.901625         0.020075
 C        -1.009096         1.893556         0.719976
 C        -0.915787         1.635832         3.085904
 C         0.415013         1.063507         2.325417
 H         0.171303        -0.667149        -0.629230
 H        -2.343313        -0.358617         0.756637
 H        -1.493386        -0.673872         2.399912
 H        -3.996119         1.556599         1.258744
 H        -3.031481         3.170475         1.617120
 H        -0.349115         2.692079         0.562051
 H        -0.847567         2.716053         3.379019
 H        -1.140202         1.108830         4.043354
 H         1.220403         1.772532         2.022180
 H         0.718668         0.081974         2.980173
