19
Iteration:  3565charge 0 multiplicity 1
 O         0.500065        -0.065943        -0.005249
 C        -0.264040         0.627059         1.003078
 C        -1.544129        -0.057906         1.468260
 C        -1.798230         1.493423         1.954353
 C        -3.034656         2.082454         1.261151
 O        -2.338004         1.925242        -0.052727
 C        -1.024546         1.889247         0.700985
 C        -0.850016         1.622539         3.161646
 C         0.341318         0.867826         2.559930
 H         0.171962        -1.010810        -0.075697
 H        -2.233273        -0.319674         0.680453
 H        -1.242362        -0.835467         2.126074
 H        -3.887630         1.499661         1.286035
 H        -3.310443         3.174133         1.481367
 H        -0.419826         2.788617         0.199815
 H        -0.521179         2.710953         3.227996
 H        -1.079853         1.224018         4.126985
 H         1.326719         1.348770         2.513527
 H         0.528159        -0.224549         2.957364
