19
Iteration:  3885charge 0 multiplicity 1
 O         0.567264        -0.116280         0.037665
 C        -0.284488         0.560016         0.960275
 C        -1.698998         0.022523         1.448502
 C        -1.832254         1.509869         1.965263
 C        -3.029450         2.165371         1.245238
 O        -2.298405         1.981965         0.014531
 C        -0.967267         1.860600         0.675258
 C        -0.852383         1.518081         3.146877
 C         0.325000         0.844087         2.437265
 H         1.332469        -0.518727         0.516569
 H        -2.346599        -0.414558         0.691560
 H        -1.585242        -0.723476         2.219691
 H        -4.006759         1.692324         1.241021
 H        -3.237405         3.303640         1.360533
 H        -0.296653         2.882270         0.556869
 H        -0.547412         2.429533         3.655430
 H        -1.324364         0.878311         3.953461
 H         1.185110         1.434587         2.448109
 H         0.436492        -0.184168         2.881243
