19
Iteration:  2368charge 0 multiplicity 1
 O         0.668039        -0.193056         0.240166
 C        -0.280506         0.542678         0.982047
 C        -1.554338        -0.015899         1.470800
 C        -1.820743         1.443542         1.868285
 C        -3.081101         2.120736         1.417034
 O        -2.463989         1.933872        -0.016123
 C        -1.095405         1.879273         0.702719
 C        -0.807254         1.628401         3.040470
 C         0.425308         0.997017         2.304944
 H         0.178185        -0.725040        -0.468475
 H        -2.059378        -0.421728         0.588753
 H        -1.488155        -0.654604         2.353684
 H        -4.050896         1.642622         1.374805
 H        -3.090742         3.269193         1.580082
 H        -0.596691         2.957256         0.412023
 H        -0.648486         2.681876         3.356049
 H        -1.174376         0.973870         3.854773
 H         1.280364         1.580501         2.116277
 H         0.789523         0.085149         2.729499
