19
Iteration:  4330
 O         0.521575        -0.165217         0.046833
 C        -0.247913         0.475667         0.984832
 C        -1.564126        -0.130849         1.429317
 C        -1.860138         1.513182         1.935141
 C        -3.009882         2.262739         1.250703
 O        -2.322473         2.129933        -0.055590
 C        -0.971471         1.833519         0.765890
 C        -0.927970         1.526023         3.204564
 C         0.335247         0.890830         2.359474
 H         1.024981        -0.803197         0.531277
 H        -2.251344        -0.378307         0.565246
 H        -1.565112        -0.933724         2.211275
 H        -3.943572         1.879863         1.166988
 H        -2.988121         3.298281         1.524268
 H        -0.395269         2.633812         0.916198
 H        -0.764411         2.471190         3.715127
 H        -1.332712         0.722464         3.880481
 H         1.117408         1.649685         2.399591
 H         0.699879        -0.028257         2.970917
