19
Iteration:  3520charge 0 multiplicity 1
 O         0.647531        -0.058016         0.194997
 C        -0.322467         0.454925         0.977664
 C        -1.723614        -0.151811         1.494608
 C        -1.812010         1.410917         1.993780
 C        -3.042960         2.145299         1.248175
 O        -2.326604         2.046588         0.002500
 C        -1.058366         1.770787         0.614276
 C        -0.795656         1.603586         3.130310
 C         0.389272         1.017076         2.345614
 H         0.305213        -0.403903        -0.696693
 H        -2.465740        -0.359587         0.695496
 H        -1.753216        -0.875247         2.290418
 H        -3.937247         1.607408         1.331722
 H        -3.209585         3.224062         1.551206
 H        -0.266340         2.658612         0.700719
 H        -0.618910         2.708602         3.396011
 H        -1.136628         1.078414         4.004726
 H         1.160338         1.819469         2.162860
 H         1.014623         0.109212         2.666364
