19
Iteration:  1592
 O         0.580204        -0.174308         0.062128
 C        -0.260121         0.546220         0.973350
 C        -1.576946        -0.102971         1.548383
 C        -1.870664         1.461872         1.987953
 C        -3.021357         2.049275         1.320873
 O        -2.321379         1.869280        -0.036707
 C        -1.075861         1.838873         0.699789
 C        -0.835175         1.772971         3.068457
 C         0.381620         1.015733         2.400620
 H        -0.012061        -0.637122        -0.633913
 H        -2.231880        -0.340372         0.682853
 H        -1.448896        -0.822816         2.415040
 H        -4.015279         1.706762         1.438130
 H        -3.021458         3.264958         1.558212
 H        -0.589776         2.815980         0.675336
 H        -0.744342         2.904648         2.997284
 H        -1.132063         1.271851         3.979830
 H         1.046584         1.774964         2.251244
 H         0.948908         0.342061         3.146645
