19
Iteration:  2789charge 0 multiplicity 1
 O         0.698778        -0.267371         0.170816
 C        -0.264596         0.493536         0.951309
 C        -1.587868        -0.075999         1.490478
 C        -1.886530         1.399351         1.980891
 C        -3.064445         2.264406         1.271736
 O        -2.403612         1.940273         0.052701
 C        -1.092318         1.807450         0.711792
 C        -0.847257         1.565240         3.066536
 C         0.403048         1.119436         2.299554
 H         0.550376         0.130522        -0.760919
 H        -2.332882        -0.347982         0.660515
 H        -1.613418        -0.812485         2.339330
 H        -3.999140         1.860458         1.440682
 H        -3.016744         3.338374         1.334360
 H        -0.580777         2.688830         0.656175
 H        -0.742885         2.588241         3.469320
 H        -1.135099         0.915494         3.911341
 H         1.146144         2.058846         2.213117
 H         0.917983         0.312858         2.808777
