19
Iteration:  4106
 O         0.446234        -0.253334         0.056888
 C        -0.289904         0.590030         0.952444
 C        -1.645916         0.074127         1.497895
 C        -1.817360         1.482528         1.966001
 C        -3.003671         2.121490         1.206739
 O        -2.223534         2.048779        -0.097203
 C        -1.004036         1.966950         0.769853
 C        -0.882886         1.399789         3.137771
 C         0.350093         0.872704         2.474367
 H         1.423990        -0.120745         0.175720
 H        -2.367943        -0.270997         0.720092
 H        -1.511123        -0.625269         2.318216
 H        -3.838136         1.540039         1.020595
 H        -3.306042         3.150369         1.571614
 H        -0.448835         2.904211         0.838993
 H        -0.677586         2.432784         3.632582
 H        -1.337856         0.713432         3.860445
 H         1.005485         1.857595         2.303713
 H         0.850342        -0.009332         3.044876
