19
Iteration:  2635charge 0 multiplicity 1
 O         0.611250        -0.137227         0.214089
 C        -0.297146         0.584154         0.974606
 C        -1.637657        -0.096564         1.533673
 C        -1.820831         1.482940         1.967688
 C        -2.958163         2.144651         1.291372
 O        -2.339074         1.910922        -0.017994
 C        -1.076912         1.822671         0.642063
 C        -0.822300         1.542616         3.133990
 C         0.321680         1.018053         2.244153
 H         0.134897        -0.315971        -0.561637
 H        -2.377995        -0.470374         0.795379
 H        -1.541325        -0.938297         2.302317
 H        -3.927972         1.906470         1.508529
 H        -2.946521         3.312218         1.451495
 H        -0.643819         2.846441         0.601297
 H        -0.616629         2.519466         3.613975
 H        -1.078137         0.859917         3.991068
 H         0.913594         1.969615         2.043072
 H         1.062836         0.336276         2.580765
