19
Iteration:  4191
 O         0.633841        -0.143612         0.228439
 C        -0.362167         0.578925         0.991469
 C        -1.673124         0.019122         1.412978
 C        -1.783255         1.537977         1.954386
 C        -3.018536         2.178596         1.233591
 O        -2.288055         2.063590        -0.071171
 C        -0.979564         1.942815         0.699868
 C        -0.846762         1.380632         3.199789
 C         0.319119         0.805460         2.318984
 H         0.135703        -0.942146        -0.055192
 H        -2.309921        -0.305564         0.573836
 H        -1.671988        -0.726337         2.184821
 H        -4.070021         1.591916         1.252221
 H        -3.090744         3.278549         1.531438
 H        -0.355497         2.865889         0.656234
 H        -0.647581         2.357832         3.621321
 H        -1.300134         0.731039         3.959846
 H         1.092249         1.637287         2.235776
 H         0.659481        -0.129399         2.701987
