19
Iteration:  3894
 O         0.545112        -0.144981         0.096673
 C        -0.297520         0.574059         0.985062
 C        -1.627382        -0.045268         1.386697
 C        -1.817413         1.489585         1.875181
 C        -3.012434         2.214684         1.283332
 O        -2.351481         1.976530         0.003976
 C        -0.978196         1.912479         0.722819
 C        -0.885100         1.516818         3.117845
 C         0.348252         0.799216         2.424185
 H         1.425026        -0.132239         0.538127
 H        -2.464296        -0.284217         0.731016
 H        -1.553160        -0.680953         2.227278
 H        -4.018470         1.654152         1.188538
 H        -3.024660         3.323661         1.624985
 H        -0.277505         2.835736         0.670378
 H        -0.629584         2.542544         3.308161
 H        -1.266812         1.040761         4.072932
 H         1.225480         1.317541         2.463553
 H         0.553068        -0.069319         2.926051
