19
Iteration:  2387charge 0 multiplicity 1
 O         0.721420        -0.116579         0.196122
 C        -0.331148         0.498714         0.914268
 C        -1.653078        -0.054490         1.596996
 C        -1.843121         1.417358         2.023428
 C        -2.996037         2.248755         1.255500
 O        -2.427822         1.896229         0.007370
 C        -1.099028         1.816263         0.580630
 C        -0.820197         1.530167         3.158070
 C         0.395832         1.070558         2.248357
 H         0.398193        -0.553581        -0.603356
 H        -2.414729        -0.293812         0.910839
 H        -1.538673        -0.834163         2.291523
 H        -3.897892         1.633506         1.408202
 H        -2.947674         3.268522         1.474812
 H        -0.687808         2.806282         0.463218
 H        -0.691986         2.494105         3.625336
 H        -0.989630         0.949704         4.028556
 H         1.004117         1.928326         2.029554
 H         1.065696         0.189095         2.702855
