19
Iteration:  1543
 O         0.569787        -0.187095         0.198629
 C        -0.291175         0.522004         1.032710
 C        -1.590197        -0.063062         1.610953
 C        -1.819777         1.556910         1.954041
 C        -3.084831         2.068765         1.152191
 O        -2.352128         1.877625        -0.061814
 C        -1.078887         1.915504         0.714464
 C        -0.776848         1.596527         3.174336
 C         0.399733         1.035062         2.243194
 H         0.267445        -0.039117        -0.665889
 H        -2.417587        -0.275100         0.967942
 H        -1.453722        -0.682117         2.472690
 H        -3.970184         1.294023         1.334662
 H        -3.508675         3.038905         1.394224
 H        -0.521920         2.899993         0.712413
 H        -0.406929         2.522197         3.433904
 H        -0.988427         0.866282         3.965814
 H         1.235604         1.844475         1.842951
 H         1.020679         0.289223         2.684320
