19
Iteration:  4439charge 0 multiplicity 1
 O         0.582588        -0.014396         0.000245
 C        -0.375202         0.475823         0.916337
 C        -1.739614        -0.019617         1.439349
 C        -1.865006         1.415074         2.048631
 C        -2.904960         2.221648         1.223750
 O        -2.231091         1.963173        -0.020498
 C        -0.921025         1.820441         0.744325
 C        -0.921376         1.577618         3.257051
 C         0.296098         0.869086         2.376939
 H         1.020937        -0.884123         0.240384
 H        -2.539594        -0.191057         0.680343
 H        -1.809343        -0.877397         2.176416
 H        -3.901429         1.784202         1.065280
 H        -3.025049         3.300479         1.560288
 H        -0.276297         2.639811         0.771922
 H        -0.813634         2.645879         3.389435
 H        -1.163587         1.054818         4.220395
 H         1.164899         1.524577         2.242897
 H         0.728288        -0.100824         2.805386
