19
Iteration:  4800
 O         0.583711        -0.175884         0.134225
 C        -0.331669         0.515229         0.887647
 C        -1.679130        -0.034932         1.399445
 C        -1.766360         1.527423         1.943366
 C        -2.921087         2.225415         1.326700
 O        -2.346220         2.013215        -0.000483
 C        -0.927770         1.938142         0.635597
 C        -0.947669         1.436255         3.151978
 C         0.267765         0.874507         2.402478
 H         1.347756        -0.403894         0.690482
 H        -2.489180        -0.242790         0.684004
 H        -1.542486        -0.802454         2.115486
 H        -3.916309         1.736023         1.367421
 H        -3.072124         3.298008         1.590032
 H        -0.305363         2.747234         0.565233
 H        -0.711697         2.417820         3.600571
 H        -1.340626         1.007952         4.079135
 H         1.099544         1.542100         2.319163
 H         0.633853        -0.087971         2.785102
