19
Iteration:  4111charge 0 multiplicity 1
 O         0.443203        -0.223658         0.074576
 C        -0.296853         0.570098         0.966404
 C        -1.628983         0.022600         1.492942
 C        -1.850786         1.455980         1.983715
 C        -2.984595         2.136001         1.170358
 O        -2.203092         2.060486        -0.109874
 C        -0.999001         1.948296         0.798526
 C        -0.865133         1.459782         3.161582
 C         0.320380         0.852768         2.400669
 H         1.377454         0.075731         0.098350
 H        -2.405599        -0.296487         0.818908
 H        -1.451570        -0.665453         2.349501
 H        -4.010380         1.541092         1.212718
 H        -3.318317         3.171897         1.584059
 H        -0.398211         2.946347         0.837600
 H        -0.630005         2.367535         3.640493
 H        -1.371289         0.776762         3.860785
 H         1.024450         1.602519         2.388462
 H         0.833947         0.135151         2.984220
