19
Iteration:   431charge 0 multiplicity 1
 O         0.491063        -0.143829        -0.038342
 C        -0.263322         0.581584         0.997160
 C        -1.531964        -0.049630         1.463932
 C        -1.842428         1.387190         1.935769
 C        -3.015244         1.974676         1.335861
 O        -2.340686         1.852901         0.065977
 C        -0.992235         1.878570         0.712308
 C        -0.854119         1.837913         3.032310
 C         0.302204         1.026973         2.433415
 H         0.964101        -0.896348         0.438950
 H        -2.134926        -0.446738         0.625813
 H        -1.368107        -0.759425         2.272562
 H        -3.955950         1.379349         1.438621
 H        -3.341268         2.941472         1.666796
 H        -0.470038         2.940224         0.571041
 H        -0.666363         2.921321         3.023039
 H        -1.143848         1.521290         4.100183
 H         1.261816         1.600826         2.368989
 H         0.644131         0.196134         3.026104
