19
Iteration:  4860charge 0 multiplicity 1
 O         0.491822        -0.045688        -0.033916
 C        -0.392471         0.437948         1.005725
 C        -1.662181        -0.059043         1.557460
 C        -1.849589         1.411394         1.997063
 C        -2.906822         2.063602         1.265727
 O        -2.089457         2.159746        -0.039064
 C        -0.940267         1.778855         0.784482
 C        -0.987740         1.614636         3.118302
 C         0.285352         0.936848         2.377190
 H         0.120681        -0.835026        -0.382921
 H        -2.472129        -0.379506         0.909107
 H        -1.443539        -0.895814         2.390009
 H        -3.774738         1.448569         0.963314
 H        -3.225902         3.154813         1.564370
 H        -0.101528         2.593114         0.734750
 H        -0.764946         2.654540         3.254684
 H        -1.205534         1.004157         3.990538
 H         1.230550         1.571551         2.364100
 H         0.484537         0.051635         3.015315
