19
Iteration:   436charge 0 multiplicity 1
 O         0.526092        -0.157708        -0.022186
 C        -0.250673         0.611176         1.014433
 C        -1.545547        -0.087451         1.484280
 C        -1.779739         1.438408         1.965598
 C        -3.071760         1.987620         1.349001
 O        -2.339584         1.868563         0.033204
 C        -1.032747         1.883823         0.702026
 C        -0.851052         1.819547         3.049511
 C         0.321080         0.995960         2.377856
 H         1.105713        -0.806277         0.338462
 H        -2.284674        -0.504828         0.780934
 H        -1.397439        -0.850974         2.271746
 H        -3.984537         1.392088         1.338435
 H        -3.371615         3.077114         1.603381
 H        -0.519685         2.792936         0.696358
 H        -0.881376         2.937043         2.985709
 H        -1.113843         1.495367         4.013829
 H         1.234081         1.592685         2.360426
 H         0.588246         0.103953         3.025873
