19
Iteration:  1415
 O         0.423773        -0.260230         0.091119
 C        -0.216087         0.554468         0.970583
 C        -1.519796        -0.001589         1.580479
 C        -1.788537         1.435031         1.973326
 C        -3.082433         2.009832         1.274888
 O        -2.326863         1.875071        -0.084295
 C        -1.070628         1.915810         0.715818
 C        -0.869747         1.701354         3.116890
 C         0.436574         1.057020         2.380138
 H         0.797730         0.346881        -0.662995
 H        -2.338850        -0.492548         0.950558
 H        -1.254396        -0.800038         2.351633
 H        -3.974412         1.510190         1.205322
 H        -3.151588         3.130364         1.289684
 H        -0.526998         2.893309         0.594567
 H        -0.914538         2.761669         3.617145
 H        -1.037513         1.134601         4.037227
 H         1.172227         1.774355         2.176605
 H         0.836399         0.222214         3.094791
