19
Iteration:  1452
 O         0.583993        -0.123510         0.190085
 C        -0.324498         0.504741         1.028765
 C        -1.635704        -0.050658         1.539477
 C        -1.806710         1.561136         2.004582
 C        -3.093861         2.062667         1.259805
 O        -2.307685         1.867583        -0.036396
 C        -1.016411         1.811382         0.663004
 C        -0.821646         1.609169         3.125246
 C         0.416867         1.068512         2.256075
 H         0.162738        -0.274416        -0.696612
 H        -2.493471        -0.272194         0.898231
 H        -1.514555        -0.662106         2.436389
 H        -4.031297         1.354018         1.225804
 H        -3.346353         3.114162         1.458615
 H        -0.419902         2.774937         0.484313
 H        -0.671051         2.635288         3.516122
 H        -1.011348         0.777377         3.828930
 H         1.086897         1.882437         1.823189
 H         1.040067         0.351054         2.958985
