19
Iteration:  3928
 O         0.671287        -0.247627         0.180476
 C        -0.311361         0.448932         0.913600
 C        -1.676982        -0.117325         1.354321
 C        -1.862169         1.361842         1.944103
 C        -3.020908         2.226316         1.269675
 O        -2.289212         2.162657         0.030646
 C        -1.007389         1.807713         0.760669
 C        -0.896802         1.598425         3.116935
 C         0.345948         0.959085         2.424379
 H         0.824665         0.269407        -0.673648
 H        -2.405459        -0.196770         0.561355
 H        -1.759195        -0.928996         2.044377
 H        -4.076845         1.844618         1.195758
 H        -3.195411         3.205512         1.880395
 H        -0.441637         2.789357         0.607627
 H        -0.899111         2.671794         3.237391
 H        -0.965268         1.104645         4.128423
 H         1.192677         1.522999         2.310418
 H         0.608450         0.044191         2.841661
