19
Iteration:    30
 O         0.541576        -0.179996         0.135606
 C        -0.275873         0.576286         1.013730
 C        -1.475854        -0.102835         1.714241
 C        -1.869517         1.429976         2.009576
 C        -3.148527         1.961593         1.227999
 O        -2.437689         1.863176        -0.100105
 C        -1.167330         1.836579         0.648709
 C        -0.758497         1.691515         3.116880
 C         0.460265         1.193399         2.196496
 H         1.458468         0.013435         0.312121
 H        -2.070808        -0.776801         1.145817
 H        -1.182376        -0.543327         2.671264
 H        -4.038590         1.352832         1.279700
 H        -3.258101         3.039149         1.523163
 H        -0.631838         2.806691         0.549437
 H        -0.665988         2.793792         3.413110
 H        -0.884056         1.004465         3.948866
 H         0.979269         2.092178         1.712075
 H         1.276988         0.631585         2.650578
