19
Iteration:   167
 O         0.495909        -0.277676         0.087650
 C        -0.161127         0.581015         0.994780
 C        -1.406183        -0.103522         1.578323
 C        -1.825102         1.492545         1.963853
 C        -3.175792         2.003352         1.259110
 O        -2.467633         1.890516        -0.005019
 C        -1.132223         1.829092         0.695424
 C        -0.805482         1.741157         3.094806
 C         0.408090         1.141454         2.315419
 H         1.462817        -0.009580        -0.035981
 H        -2.108870        -0.459619         0.778952
 H        -1.126894        -0.693479         2.470730
 H        -4.070314         1.314003         1.308557
 H        -3.312986         3.076796         1.453649
 H        -0.700088         2.775314         0.496692
 H        -0.531083         2.784522         3.253207
 H        -1.107412         1.142384         4.020508
 H         1.056111         1.946304         1.996650
 H         0.983252         0.479203         3.023896
