19
Iteration:  1815charge 0 multiplicity 1
 O         0.544449        -0.161902         0.120366
 C        -0.276100         0.562001         1.025379
 C        -1.554961        -0.056771         1.561373
 C        -1.798066         1.522032         1.987805
 C        -3.098455         2.012673         1.220554
 O        -2.325836         1.883440        -0.054125
 C        -1.053193         1.877422         0.750738
 C        -0.811365         1.576026         3.097194
 C         0.422292         1.103288         2.270860
 H        -0.106596        -0.695010        -0.286361
 H        -2.305484        -0.548993         0.950910
 H        -1.420697        -0.707818         2.399876
 H        -4.060164         1.617429         1.069577
 H        -3.258521         3.186577         1.540844
 H        -0.628236         2.877533         0.836351
 H        -0.788924         2.621278         3.496520
 H        -1.029348         1.006284         4.028369
 H         0.984701         1.976310         1.939691
 H         0.994844         0.350497         2.906010
