19
Iteration:  4654charge 0 multiplicity 1
 O         0.625559        -0.100153         0.109394
 C        -0.297469         0.464239         1.028393
 C        -1.661941        -0.106068         1.398658
 C        -1.908354         1.420459         1.906879
 C        -2.949611         2.264873         1.323376
 O        -2.290580         2.193261        -0.010072
 C        -0.980902         1.772736         0.694191
 C        -0.949878         1.509720         3.089033
 C         0.377935         0.872136         2.444243
 H         0.218016        -0.998661        -0.056875
 H        -2.131778        -0.363333         0.462334
 H        -1.783189        -0.948340         2.039999
 H        -3.973127         1.777742         1.281783
 H        -2.981783         3.270479         1.807420
 H        -0.396981         2.635359         0.635781
 H        -0.709538         2.581059         3.188740
 H        -1.294983         0.992993         4.036055
 H         1.199879         1.607142         2.347552
 H         0.775589        -0.018965         2.960998
