19
Iteration:  2500
 O         0.693127        -0.159643         0.178799
 C        -0.317667         0.490571         0.914846
 C        -1.581681        -0.144190         1.498261
 C        -1.843186         1.451324         1.974259
 C        -2.985000         2.195255         1.269753
 O        -2.409512         1.964697         0.003224
 C        -1.123441         1.810137         0.739056
 C        -0.850240         1.585779         3.126412
 C         0.369332         1.091409         2.273161
 H         0.301325        -0.603696        -0.639755
 H        -2.395823        -0.532773         0.845968
 H        -1.447507        -0.871079         2.320331
 H        -4.012246         1.825118         1.425767
 H        -2.802549         3.310167         1.533758
 H        -0.573880         2.752037         0.574333
 H        -0.619116         2.600470         3.519523
 H        -1.116359         1.108825         4.078597
 H         1.004500         1.937936         2.112967
 H         0.942245         0.218258         2.680382
