19
Iteration:   113
 O         0.653530         0.074627         0.073065
 C        -0.314756         0.530298         0.996975
 C        -1.634815        -0.097150         1.725112
 C        -1.828288         1.506490         1.988575
 C        -3.181018         2.037897         1.225443
 O        -2.377235         1.751524         0.031677
 C        -1.040861         1.696931         0.617472
 C        -0.763075         1.750654         3.083513
 C         0.434694         1.114035         2.241961
 H         0.657224        -0.920981        -0.096504
 H        -2.429617        -0.505924         1.002357
 H        -1.527054        -0.792552         2.605546
 H        -4.049546         1.304213         1.352964
 H        -3.593503         3.015725         1.376334
 H        -0.382105         2.448203         0.240731
 H        -0.609152         2.732370         3.403519
 H        -0.900296         1.371760         4.143028
 H         1.216023         1.743681         1.816767
 H         0.969968         0.312403         2.841193
