19
Iteration:  1056charge 0 multiplicity 1
 O         0.425473        -0.276281         0.140629
 C        -0.185552         0.580578         0.981281
 C        -1.430458        -0.015722         1.528000
 C        -1.808590         1.384709         1.971763
 C        -3.092694         1.983050         1.396074
 O        -2.389395         1.864059        -0.021884
 C        -1.095555         1.825885         0.666801
 C        -0.840916         1.749591         3.002486
 C         0.385141         1.191859         2.300307
 H         1.337890        -0.133368         0.296351
 H        -2.063942        -0.344548         0.683347
 H        -1.561718        -0.706691         2.362847
 H        -4.137398         1.497034         1.436880
 H        -3.323778         3.019695         1.718693
 H        -0.483849         2.690533         0.478508
 H        -0.688784         2.818936         3.269364
 H        -0.999255         1.177508         3.879229
 H         0.921933         2.156685         1.892552
 H         1.071731         0.400832         2.831257
