19
Iteration:  4070
 O         0.544829        -0.198901         0.119844
 C        -0.303908         0.503256         0.979002
 C        -1.652147        -0.018265         1.331926
 C        -1.821279         1.472211         1.929444
 C        -2.962630         2.143022         1.330695
 O        -2.288655         2.115656        -0.016226
 C        -0.964413         1.875346         0.719445
 C        -0.917651         1.490357         3.134728
 C         0.265053         0.916833         2.423194
 H         1.277283        -0.570382         0.699881
 H        -2.270223        -0.114843         0.461288
 H        -1.637137        -0.944296         1.911458
 H        -3.977563         1.630381         1.187855
 H        -3.139242         3.092232         1.639505
 H        -0.391821         2.736443         0.696071
 H        -0.715879         2.497797         3.471278
 H        -1.149615         0.910771         4.055023
 H         1.126340         1.764031         2.103888
 H         0.893015         0.132184         2.842380
