19
Iteration:  4485
 O         0.517734        -0.274957         0.019901
 C        -0.274821         0.550952         0.978872
 C        -1.608804        -0.076754         1.476407
 C        -1.874870         1.421260         1.956361
 C        -2.969721         2.105816         1.233635
 O        -2.245284         2.257669         0.010148
 C        -0.973920         1.916333         0.695315
 C        -0.984611         1.491751         3.208555
 C         0.299036         0.960545         2.358682
 H         0.953801        -0.974586         0.605373
 H        -2.273484        -0.487434         0.705005
 H        -1.418720        -0.912853         2.276873
 H        -3.958583         1.638124         1.170597
 H        -2.982687         3.206712         1.597401
 H        -0.242170         2.611311         0.513069
 H        -0.766360         2.602522         3.451890
 H        -1.138010         0.739903         4.056219
 H         1.107722         1.764463         2.251508
 H         0.841555         0.052402         2.900727
