19
Iteration:  1976charge 0 multiplicity 1
 O         0.644162        -0.086909         0.147535
 C        -0.333273         0.495618         0.984869
 C        -1.633612        -0.095446         1.584581
 C        -1.823941         1.419070         2.019923
 C        -3.084361         2.006472         1.254682
 O        -2.342678         1.968349         0.016214
 C        -1.061315         1.821370         0.692226
 C        -0.719714         1.742561         3.033925
 C         0.382471         0.990118         2.287429
 H         0.279736        -0.130888        -0.736794
 H        -2.551070        -0.416679         1.029364
 H        -1.439747        -0.859241         2.412235
 H        -3.970730         1.163656         1.158390
 H        -3.503286         3.079568         1.361859
 H        -0.560936         2.809697         0.537597
 H        -0.770776         2.813495         3.122967
 H        -1.050797         1.492615         4.012301
 H         1.226614         1.609488         2.195421
 H         0.645167         0.168901         2.911157
