19
Iteration:   551charge 0 multiplicity 1
 O         0.628468        -0.177923         0.057435
 C        -0.413852         0.515643         0.922497
 C        -1.641965        -0.071064         1.691446
 C        -1.835072         1.498074         2.016561
 C        -3.123591         1.896961         1.234552
 O        -2.303009         1.980985         0.011766
 C        -1.029198         1.860970         0.674194
 C        -0.791648         1.774836         3.136784
 C         0.404525         0.983770         2.324192
 H         0.978592         0.572953        -0.387578
 H        -2.359839        -0.510028         0.943623
 H        -1.460900        -0.762342         2.504432
 H        -3.881403         1.112888         0.964871
 H        -3.730646         2.792682         1.381669
 H        -0.377482         2.671274         0.465518
 H        -0.602508         2.857693         3.116918
 H        -1.035560         1.420135         4.188583
 H         1.208559         1.756199         2.009693
 H         1.056274         0.116812         2.618424
