19
Iteration:  1124charge 0 multiplicity 1
 O         0.599782        -0.033114         0.060476
 C        -0.309344         0.556037         0.995539
 C        -1.600104        -0.047303         1.601810
 C        -1.816885         1.476885         1.941024
 C        -3.067900         2.013511         1.247942
 O        -2.403569         1.751812         0.020262
 C        -1.086981         1.845837         0.650324
 C        -0.704774         1.768047         3.082423
 C         0.398770         0.992551         2.390598
 H         0.418026        -0.956483        -0.323858
 H        -2.370157        -0.328413         0.950029
 H        -1.495835        -0.712267         2.460897
 H        -4.098275         1.559255         1.205373
 H        -3.345359         3.020713         1.583430
 H        -0.653582         2.836030         0.400736
 H        -0.530651         2.824138         3.094769
 H        -1.011729         1.413957         4.128377
 H         1.321784         1.775768         2.159547
 H         0.709898         0.190478         3.042939
