19
Iteration:  3256
 O         0.643241        -0.065120         0.092318
 C        -0.337053         0.536717         0.952807
 C        -1.655881         0.023757         1.645623
 C        -1.828618         1.574331         1.985863
 C        -3.090191         2.126650         1.239809
 O        -2.279928         1.816210        -0.023526
 C        -1.016989         1.829544         0.675798
 C        -0.838618         1.536481         3.148702
 C         0.392113         0.976228         2.302965
 H         0.026171        -0.589689        -0.538461
 H        -2.426315        -0.218986         0.938502
 H        -1.622150        -0.824615         2.323209
 H        -3.920044         1.518369         1.220602
 H        -3.377821         3.250667         1.419561
 H        -0.496524         2.853402         0.449385
 H        -0.559227         2.504430         3.786370
 H        -1.074456         0.822640         4.010081
 H         1.054391         1.716632         1.909664
 H         0.928102         0.098289         2.873557
