19
Iteration:  3630charge 0 multiplicity 1
 O         0.553667        -0.179620         0.102007
 C        -0.306776         0.500826         0.992695
 C        -1.619480        -0.105462         1.514661
 C        -1.847516         1.345313         1.958522
 C        -2.978315         2.179270         1.270557
 O        -2.351487         2.094879        -0.049041
 C        -1.099743         1.822529         0.694747
 C        -0.841337         1.550023         3.113195
 C         0.422851         1.057813         2.330377
 H         1.367081        -0.390260         0.532100
 H        -2.313190        -0.318614         0.716140
 H        -1.616132        -0.940037         2.221659
 H        -3.977052         1.845087         1.420633
 H        -2.956179         3.231836         1.655218
 H        -0.534118         2.698700         0.780956
 H        -0.990367         2.620282         3.467464
 H        -1.230012         0.955885         3.913964
 H         1.250669         1.862193         2.188128
 H         0.838928        -0.020355         2.662738
