19
Iteration:  4267charge 0 multiplicity 1
 O         0.552898        -0.030201        -0.004210
 C        -0.271761         0.470594         0.983682
 C        -1.692314        -0.119786         1.491099
 C        -1.880653         1.412098         1.974658
 C        -3.032072         2.252003         1.212840
 O        -2.206310         2.111606        -0.002795
 C        -0.960836         1.807365         0.759924
 C        -0.897226         1.590364         3.098237
 C         0.300041         0.774044         2.444410
 H         0.966332        -0.847258         0.226079
 H        -2.383380        -0.479520         0.701286
 H        -1.660662        -0.754828         2.365441
 H        -4.051978         1.714225         1.064723
 H        -3.161534         3.341482         1.572961
 H        -0.275191         2.836007         0.830806
 H        -0.506619         2.603638         3.180394
 H        -1.032187         1.161057         4.096959
 H         1.134426         1.449011         2.501906
 H         0.478422        -0.166572         2.896801
