19
Iteration:  1347
 O         0.669786        -0.130941         0.145457
 C        -0.317593         0.551158         0.959674
 C        -1.561819         0.032834         1.529219
 C        -1.805223         1.438291         1.985680
 C        -3.084222         2.083034         1.267291
 O        -2.491706         1.850823         0.011635
 C        -1.045843         1.842278         0.573091
 C        -0.810001         1.644225         3.100426
 C         0.379667         1.017260         2.331360
 H         0.870402        -0.962580         0.563487
 H        -2.269372        -0.364973         0.860945
 H        -1.451218        -0.667547         2.376971
 H        -3.918402         1.574311         1.647357
 H        -3.051295         3.198636         1.544426
 H        -0.550678         2.765929         0.278383
 H        -0.673010         2.722986         3.284849
 H        -1.080706         1.287062         4.108972
 H         1.120162         1.805384         1.954345
 H         0.925021         0.203292         2.811848
