19
Iteration:  1688
 O         0.487354        -0.157531         0.081400
 C        -0.274289         0.545045         0.995430
 C        -1.568804        -0.130606         1.638746
 C        -1.879093         1.369493         2.000714
 C        -2.978568         2.087378         1.201346
 O        -2.305514         1.898308        -0.071525
 C        -1.051709         1.845220         0.735042
 C        -0.880407         1.697374         3.162251
 C         0.432387         1.140628         2.319357
 H        -0.157556        -0.470094        -0.656826
 H        -2.228533        -0.534556         0.843037
 H        -1.454010        -0.845924         2.513991
 H        -3.996937         1.502116         1.209746
 H        -3.012332         3.160958         1.270556
 H        -0.668439         2.892290         0.670324
 H        -0.542921         2.691485         3.410140
 H        -0.918162         1.037785         4.036176
 H         1.121850         2.059647         2.019909
 H         1.187372         0.387128         2.803326
