19
Iteration:    46
 O         0.584855        -0.271442         0.085477
 C        -0.211852         0.470398         0.991619
 C        -1.554415        -0.041182         1.601001
 C        -1.779754         1.425643         1.946982
 C        -3.053183         1.919063         1.333687
 O        -2.470769         1.829525         0.003558
 C        -1.118171         1.837199         0.666514
 C        -0.852321         1.767400         3.085471
 C         0.420224         1.289971         2.289530
 H         1.308078         0.296121        -0.143640
 H        -2.311694        -0.199878         0.777986
 H        -1.539820        -0.856866         2.325129
 H        -3.946512         1.244116         1.414534
 H        -3.363694         2.939954         1.483501
 H        -0.675059         2.810811         0.537049
 H        -0.707576         2.810803         3.169114
 H        -1.096132         1.438492         4.116148
 H         0.912519         2.211953         2.001851
 H         1.217849         0.727319         2.827542
