19
Iteration:  1895charge 0 multiplicity 1
 O         0.670006        -0.050687         0.190819
 C        -0.345718         0.508582         0.968092
 C        -1.612652        -0.157381         1.559077
 C        -1.852167         1.433546         2.013160
 C        -3.013546         2.136091         1.282912
 O        -2.413491         1.877165        -0.021584
 C        -1.088404         1.770786         0.662895
 C        -0.752480         1.668184         3.091777
 C         0.384397         1.053668         2.269802
 H         0.320696        -0.422692        -0.588334
 H        -2.232648        -0.471614         0.743579
 H        -1.603654        -0.726833         2.454254
 H        -4.114687         1.774214         1.311004
 H        -3.025119         3.346222         1.465129
 H        -0.552767         2.778080         0.620056
 H        -0.660845         2.751576         3.262899
 H        -1.072650         1.047569         3.970396
 H         1.118950         1.892392         2.092335
 H         0.922051         0.232386         2.704298
