19
Iteration:   705
 O         0.387827        -0.125597         0.006135
 C        -0.271016         0.587592         1.037368
 C        -1.533842        -0.040284         1.492519
 C        -1.761127         1.413354         1.912555
 C        -2.976054         2.036045         1.326453
 O        -2.410941         1.823431        -0.050625
 C        -1.021177         1.783816         0.604750
 C        -0.846879         1.712232         3.155615
 C         0.442366         1.106486         2.488168
 H         1.341235        -0.248301         0.308060
 H        -2.286493        -0.265854         0.809211
 H        -1.382503        -0.776627         2.260061
 H        -3.919233         1.427380         1.467808
 H        -3.242089         3.111509         1.544822
 H        -0.550198         2.695691         0.256155
 H        -0.938728         2.799728         3.476102
 H        -1.136281         1.190888         4.081023
 H         1.206168         1.839854         2.219058
 H         0.718269         0.255463         2.983564
