19
Iteration:  4617charge 0 multiplicity 1
 O         0.567436        -0.297490         0.137306
 C        -0.269011         0.587821         0.901507
 C        -1.643118         0.071886         1.389860
 C        -1.855365         1.496995         1.973714
 C        -3.079915         2.111903         1.238797
 O        -2.210187         2.177239         0.041626
 C        -0.985129         1.945414         0.809898
 C        -0.942627         1.427861         3.146051
 C         0.340893         0.889540         2.267787
 H         0.592983        -1.262062         0.444108
 H        -2.309878        -0.276732         0.515694
 H        -1.463221        -0.704965         2.274252
 H        -3.808446         1.339170         1.149672
 H        -3.560898         3.058531         1.476166
 H        -0.192643         2.697645         0.694779
 H        -0.437402         2.380312         3.535045
 H        -1.398460         1.065580         4.088761
 H         1.101033         1.730829         2.401436
 H         0.808775        -0.078021         2.732902
