19
Iteration:  4710charge 0 multiplicity 1
 O         0.513085        -0.118527         0.069553
 C        -0.273922         0.433938         1.067965
 C        -1.700217         0.055333         1.479221
 C        -1.783770         1.584673         1.863328
 C        -3.052272         2.112798         1.241623
 O        -2.233929         2.047918        -0.040894
 C        -0.907074         1.906527         0.701771
 C        -0.916857         1.432289         3.144164
 C         0.372936         0.758890         2.493707
 H         0.357025         0.458553        -0.649385
 H        -2.197582        -0.190470         0.606573
 H        -1.897332        -0.502916         2.292304
 H        -3.994445         1.467538         1.202951
 H        -3.344582         3.132625         1.582078
 H        -0.431438         2.795693         0.563176
 H        -0.514195         2.365563         3.461906
 H        -1.390942         1.050535         4.067921
 H         1.095824         1.557369         2.416697
 H         0.826501        -0.029250         3.006163
