19
Iteration:  2910
 O         0.709608        -0.175515         0.150304
 C        -0.349123         0.489307         0.951344
 C        -1.629163        -0.086303         1.545461
 C        -1.862403         1.416554         2.028044
 C        -3.095767         2.178799         1.267177
 O        -2.383904         1.981858        -0.017257
 C        -1.056336         1.792315         0.647812
 C        -0.749683         1.574592         3.163461
 C         0.351218         1.061614         2.311791
 H         0.632511         0.066495        -0.792348
 H        -2.458964        -0.514299         0.907157
 H        -1.573869        -0.785863         2.465906
 H        -4.164044         1.946649         1.152263
 H        -3.064640         3.219392         1.364625
 H        -0.522124         2.659219         0.578623
 H        -0.676909         2.622341         3.425535
 H        -0.985593         1.031136         4.055899
 H         1.186435         1.770883         1.838912
 H         0.947207         0.345271         2.810624
