19
Iteration:  1015charge 0 multiplicity 1
 O         0.647226        -0.042273         0.060468
 C        -0.310148         0.513405         0.994339
 C        -1.615575        -0.015801         1.721000
 C        -1.848389         1.542655         1.997587
 C        -3.134696         1.939816         1.291723
 O        -2.412069         1.874526        -0.020786
 C        -1.154326         1.739182         0.601567
 C        -0.697458         1.770463         3.057433
 C         0.395417         1.006234         2.264129
 H         1.112825        -0.885635         0.407201
 H        -2.193916        -0.399979         0.937860
 H        -1.316387        -0.691606         2.513682
 H        -3.926405         1.177600         1.407565
 H        -3.275302         3.005036         1.322797
 H        -0.488595         2.727805         0.442659
 H        -0.379777         2.831749         3.141737
 H        -0.951610         1.308955         4.132172
 H         1.145763         1.858486         1.990271
 H         0.719901         0.194418         2.842092
