19
Iteration:   944charge 0 multiplicity 1
 O         0.495351        -0.106816         0.049948
 C        -0.294767         0.525260         1.064354
 C        -1.542750        -0.041182         1.666541
 C        -1.795662         1.481494         1.956817
 C        -3.034505         1.963236         1.324604
 O        -2.366365         1.832150        -0.075128
 C        -1.120138         1.846885         0.663480
 C        -0.794219         1.682143         3.052790
 C         0.447690         1.181289         2.255085
 H         0.838579        -0.979021         0.436376
 H        -2.332999        -0.397574         0.960160
 H        -1.502817        -0.559528         2.641536
 H        -3.879139         1.282211         1.361466
 H        -3.287433         3.019059         1.550571
 H        -0.743993         2.816014         0.519469
 H        -0.702992         2.696602         3.477337
 H        -1.058672         1.052369         3.831205
 H         1.143303         1.933818         1.906389
 H         0.907424         0.254005         2.817077
