19
Iteration:  2864
 O         0.499123        -0.151491         0.059469
 C        -0.295799         0.639610         0.956366
 C        -1.583682        -0.014121         1.501030
 C        -1.824472         1.477866         1.981319
 C        -3.019700         2.052194         1.224283
 O        -2.293497         1.870956        -0.013194
 C        -1.042689         1.895108         0.748185
 C        -0.829635         1.638711         3.130099
 C         0.397661         0.974549         2.435189
 H        -0.148073        -0.725157        -0.285387
 H        -2.282020        -0.390623         0.692996
 H        -1.342731        -0.880663         2.144264
 H        -3.971781         1.403610         1.192973
 H        -3.322938         3.054696         1.496385
 H        -0.614157         2.872882         0.550700
 H        -0.488237         2.649017         3.348115
 H        -0.998828         1.174401         4.073379
 H         1.267320         1.683986         2.392447
 H         0.828401         0.073528         2.847292
