19
Iteration:  3624charge 0 multiplicity 1
 O         0.530690        -0.159459         0.106963
 C        -0.278632         0.527751         0.997388
 C        -1.630201        -0.099278         1.540474
 C        -1.832055         1.332374         1.949263
 C        -2.989017         2.180131         1.199342
 O        -2.325871         2.088534        -0.037745
 C        -1.142865         1.824314         0.720966
 C        -0.844252         1.522471         3.175421
 C         0.413332         1.046079         2.279684
 H         1.226815        -0.491838         0.734376
 H        -2.284023        -0.362449         0.678090
 H        -1.612986        -0.964001         2.224021
 H        -4.126568         1.890719         1.148706
 H        -2.890746         3.135746         1.769333
 H        -0.425673         2.804336         0.713829
 H        -0.719823         2.563241         3.427818
 H        -0.996151         0.949336         4.159288
 H         1.086020         1.806846         2.031763
 H         0.938536         0.189734         2.559370
