19
Iteration:   673
 O         0.530814        -0.218720         0.038152
 C        -0.281544         0.552602         0.950119
 C        -1.523325        -0.059852         1.591886
 C        -1.890942         1.363215         2.007001
 C        -3.156265         2.018850         1.217083
 O        -2.325716         2.001709        -0.009052
 C        -1.089312         1.843307         0.769460
 C        -0.771129         1.741299         3.069860
 C         0.388537         1.035777         2.315718
 H         1.425863        -0.127830         0.422193
 H        -2.310157        -0.553622         1.108116
 H        -1.257301        -0.698479         2.405154
 H        -3.893701         1.214049         1.198927
 H        -3.454618         2.981681         1.642859
 H        -0.526626         2.707583         0.756853
 H        -0.729601         2.867659         2.973798
 H        -0.954816         1.418161         4.107239
 H         1.189940         1.816024         2.012311
 H         0.943777         0.292585         2.757812
