19
Iteration:  1521
 O         0.659048        -0.182393         0.178415
 C        -0.285557         0.556235         0.992651
 C        -1.644916         0.012855         1.514115
 C        -1.830570         1.428342         1.975490
 C        -3.065253         2.050687         1.326682
 O        -2.372406         1.902533         0.003797
 C        -1.082696         1.840095         0.602062
 C        -0.807597         1.730094         3.067749
 C         0.385981         1.019034         2.386285
 H         0.249640        -0.516077        -0.699547
 H        -2.287389        -0.231009         0.690474
 H        -1.485765        -0.747240         2.242322
 H        -4.066982         1.406838         1.323947
 H        -3.288610         3.079024         1.652612
 H        -0.345431         2.619884         0.365565
 H        -0.618871         2.740888         3.154281
 H        -1.075149         1.180486         3.972638
 H         1.407926         1.593434         2.162720
 H         0.727994         0.095388         2.758243
