19
Iteration:  2870charge 0 multiplicity 1
 O         0.465228        -0.098500         0.099796
 C        -0.273330         0.563721         0.975106
 C        -1.553080         0.016407         1.491087
 C        -1.831062         1.427354         1.949147
 C        -3.062467         2.067140         1.261035
 O        -2.275199         1.850761         0.003223
 C        -0.996527         1.896577         0.694156
 C        -0.824693         1.629577         3.114736
 C         0.365302         0.990539         2.391600
 H        -0.170102        -0.701740        -0.377197
 H        -2.229189        -0.338705         0.756851
 H        -1.383927        -0.729944         2.273153
 H        -4.015135         1.516899         1.261691
 H        -3.242292         3.172506         1.567465
 H        -0.387881         2.885623         0.528521
 H        -0.672056         2.690320         3.423856
 H        -0.934841         0.938818         4.022260
 H         1.181163         1.700091         2.262441
 H         0.761174         0.126334         3.020295
