19
Iteration:  2410
 O         0.601743        -0.049201         0.109773
 C        -0.289212         0.463292         1.043687
 C        -1.700709        -0.121440         1.569609
 C        -1.827055         1.490307         1.973768
 C        -3.005212         2.155335         1.303039
 O        -2.310675         1.875067        -0.028540
 C        -1.023026         1.741119         0.684343
 C        -0.834144         1.578730         3.107435
 C         0.359575         1.103662         2.263465
 H         0.030378        -0.027773        -0.738783
 H        -2.446488        -0.415698         0.886287
 H        -1.655540        -0.756916         2.395467
 H        -4.033478         1.761871         1.453443
 H        -2.740555         3.149482         1.487376
 H        -0.452381         2.678521         0.419050
 H        -0.636368         2.524118         3.599969
 H        -1.023696         0.965513         3.945482
 H         0.880871         1.959174         1.984320
 H         1.095388         0.402147         2.836534
