19
Iteration:  4897
 O         0.575324        -0.266917         0.154223
 C        -0.244643         0.508603         0.989518
 C        -1.614909        -0.028603         1.442184
 C        -1.889454         1.463269         1.990692
 C        -3.075202         2.248921         1.172177
 O        -2.261862         2.110929        -0.063285
 C        -1.070520         1.858501         0.810682
 C        -0.805360         1.514296         3.171962
 C         0.380722         0.886505         2.392171
 H         0.240353        -0.094822        -0.746251
 H        -2.246677        -0.099113         0.525869
 H        -1.543128        -0.894368         2.032048
 H        -4.023905         1.651428         1.263245
 H        -3.248147         3.237261         1.493849
 H        -0.391670         2.805785         0.707132
 H        -0.833936         2.610486         3.396013
 H        -1.188917         0.795975         4.018724
 H         1.260643         1.497357         2.243801
 H         0.633061        -0.040010         2.894196
