19
Iteration:  3814
 O         0.561168        -0.276982         0.091840
 C        -0.278212         0.536143         0.977591
 C        -1.607085        -0.078834         1.443083
 C        -1.867930         1.407031         1.891704
 C        -2.984812         2.147466         1.259011
 O        -2.298592         2.105489        -0.007390
 C        -1.024181         1.892285         0.731110
 C        -0.916050         1.632214         3.146430
 C         0.384259         0.860388         2.453381
 H         0.755403         0.261934        -0.710090
 H        -2.342703        -0.382650         0.686786
 H        -1.583385        -0.855766         2.281987
 H        -4.060587         1.621346         1.358428
 H        -3.115841         3.171936         1.644799
 H        -0.429643         2.821590         0.763969
 H        -0.824896         2.750241         3.290211
 H        -1.096980         1.198968         4.118835
 H         1.085265         1.718320         2.310083
 H         0.776631         0.063147         2.985876
