19
Iteration:  4071charge 0 multiplicity 1
 O         0.536938        -0.201473         0.121884
 C        -0.299413         0.507331         0.980710
 C        -1.643348        -0.011776         1.326430
 C        -1.820489         1.477545         1.936997
 C        -2.965349         2.138468         1.333233
 O        -2.293297         2.113573        -0.020380
 C        -0.958336         1.868871         0.723598
 C        -0.919769         1.491324         3.136170
 C         0.262537         0.917631         2.420548
 H         1.271222        -0.573383         0.668643
 H        -2.255109        -0.113542         0.441853
 H        -1.628335        -0.942612         1.884468
 H        -3.930631         1.619548         1.167442
 H        -3.154746         3.124757         1.648112
 H        -0.364890         2.720494         0.656976
 H        -0.717938         2.513460         3.528679
 H        -1.156365         0.891529         4.041810
 H         1.111369         1.772761         2.081730
 H         0.886920         0.116120         2.872226
