19
Iteration:  3375charge 0 multiplicity 1
 O         0.590669        -0.230914         0.095979
 C        -0.285780         0.571972         1.014825
 C        -1.541815         0.003151         1.439260
 C        -1.831407         1.460158         1.950327
 C        -2.991804         2.108038         1.320311
 O        -2.335576         1.887276        -0.004841
 C        -1.105995         1.863464         0.671230
 C        -0.875335         1.594692         3.206379
 C         0.391436         1.087613         2.349982
 H         0.224062        -0.884734        -0.478047
 H        -2.223517        -0.116120         0.601972
 H        -1.666242        -0.840561         2.179001
 H        -4.010956         1.591597         1.297325
 H        -3.297149         3.222992         1.480099
 H        -0.580695         2.904101         0.533235
 H        -0.651968         2.593917         3.433056
 H        -1.105885         0.935232         4.059138
 H         1.038870         1.945073         2.208907
 H         0.920267         0.265906         2.714205
