19
Iteration:  2158charge 0 multiplicity 1
 O         0.609719        -0.130599         0.094156
 C        -0.300970         0.607831         1.012141
 C        -1.585723         0.038845         1.620490
 C        -1.797882         1.536617         1.991646
 C        -3.029752         2.114337         1.224654
 O        -2.379409         1.735093        -0.038905
 C        -1.082678         1.857236         0.697178
 C        -0.834259         1.551421         3.130623
 C         0.385230         1.023254         2.297455
 H         0.083679        -0.131103        -0.705074
 H        -2.365714        -0.198889         0.942526
 H        -1.514129        -0.582730         2.458422
 H        -3.969784         1.654514         1.259573
 H        -2.984012         3.208150         1.346336
 H        -0.684022         2.789343         0.615000
 H        -0.734591         2.545030         3.582463
 H        -0.933984         0.850263         3.939066
 H         1.220816         1.679693         2.111633
 H         0.985488         0.144414         2.787937
