19
Iteration:  2002charge 0 multiplicity 1
 O         0.637849        -0.046845         0.073186
 C        -0.263309         0.474564         1.042976
 C        -1.566004        -0.078710         1.574698
 C        -1.829431         1.387052         1.945003
 C        -3.002358         2.167239         1.339012
 O        -2.407271         1.829200        -0.028736
 C        -1.072617         1.772741         0.668944
 C        -0.814024         1.740681         3.074722
 C         0.358676         0.975257         2.329266
 H         0.182192         0.074851        -0.744617
 H        -2.274951        -0.404079         0.828145
 H        -1.530875        -0.840839         2.357939
 H        -3.980584         1.697883         1.436013
 H        -3.001975         3.227567         1.583600
 H        -0.691878         2.739024         0.578059
 H        -0.790871         2.855972         3.031431
 H        -1.235551         1.569948         4.082076
 H         1.250604         1.687558         2.299888
 H         0.494572        -0.008253         3.051636
