19
Iteration:  3349charge 0 multiplicity 1
 O         0.587666        -0.214509         0.251890
 C        -0.308428         0.523975         1.044103
 C        -1.569625        -0.065808         1.604018
 C        -1.839114         1.436036         1.876099
 C        -3.084379         2.054994         1.281194
 O        -2.409422         2.090277        -0.021029
 C        -0.968385         1.888011         0.668438
 C        -0.803324         1.545359         3.057850
 C         0.384757         1.072902         2.222126
 H         0.518755        -0.226993        -0.699028
 H        -2.295830        -0.533761         0.889661
 H        -1.510979        -0.658023         2.538997
 H        -3.918640         1.299856         1.104081
 H        -3.477016         2.927669         1.621267
 H        -0.442631         2.777840         0.637587
 H        -0.660485         2.508889         3.596800
 H        -1.008978         0.769384         3.838781
 H         1.186087         1.919198         1.993150
 H         0.854330         0.134449         2.654889
