19
Iteration:  3746charge 0 multiplicity 1
 O         0.497645        -0.113563         0.043068
 C        -0.270574         0.504404         0.996336
 C        -1.554328        -0.035114         1.463791
 C        -1.869394         1.412622         1.990602
 C        -2.949696         2.193873         1.287315
 O        -2.298023         2.003007        -0.026221
 C        -1.006782         1.823122         0.739184
 C        -0.915639         1.579348         3.130032
 C         0.396077         0.945971         2.375500
 H         0.380899        -0.993873         0.379312
 H        -2.237975        -0.354957         0.638716
 H        -1.623744        -0.876016         2.247013
 H        -3.992599         1.681612         1.061805
 H        -3.134039         3.263268         1.469158
 H        -0.383067         2.849154         0.548008
 H        -0.924515         2.649330         3.449001
 H        -1.382139         1.088421         4.000685
 H         1.244124         1.640854         2.175191
 H         0.741912         0.125923         2.876446
