19
Iteration:   768charge 0 multiplicity 1
 O         0.558467        -0.154132         0.067779
 C        -0.308488         0.496686         1.043082
 C        -1.549261        -0.101391         1.542254
 C        -1.751177         1.403043         1.962956
 C        -3.019164         2.014171         1.369541
 O        -2.437793         2.006137        -0.013171
 C        -1.062567         1.760517         0.571755
 C        -0.893187         1.785682         3.104047
 C         0.355303         1.091854         2.334511
 H         1.331612        -0.656307         0.482370
 H        -2.194997        -0.459143         0.761713
 H        -1.524093        -0.908417         2.329918
 H        -3.946560         1.430718         1.264291
 H        -3.153643         3.068020         1.597489
 H        -0.398325         2.727415         0.548283
 H        -0.651793         2.840399         3.116338
 H        -0.975892         1.364179         4.075334
 H         1.080560         1.671519         1.826890
 H         1.068723         0.275806         2.894108
