19
Iteration:  3199charge 0 multiplicity 1
 O         0.674781        -0.324514         0.167077
 C        -0.232993         0.507954         0.944550
 C        -1.539496        -0.067253         1.530941
 C        -1.899661         1.402097         1.882077
 C        -3.061654         2.075506         1.344453
 O        -2.397312         2.098648         0.059547
 C        -1.101221         1.847381         0.693883
 C        -0.862129         1.719932         3.013562
 C         0.385309         0.981524         2.332550
 H         0.541298         0.118781        -0.654589
 H        -2.278437        -0.468650         0.781152
 H        -1.427808        -0.656337         2.463463
 H        -3.953388         1.484099         1.117245
 H        -3.362418         3.084733         1.854170
 H        -0.624856         2.955597         0.709702
 H        -0.685746         2.807806         2.952021
 H        -1.080905         1.377939         4.077766
 H         1.256282         1.578434         2.180259
 H         0.755366         0.110299         2.903006
