19
Iteration:  3335
 O         0.652118        -0.206687         0.234204
 C        -0.289616         0.480258         0.962814
 C        -1.631086        -0.081944         1.603975
 C        -1.833173         1.452279         1.961218
 C        -3.107651         1.986501         1.269663
 O        -2.319845         2.175237        -0.001108
 C        -1.152762         1.785679         0.646044
 C        -0.824899         1.620767         3.057069
 C         0.444638         1.020666         2.276221
 H         0.393697         0.095362        -0.700698
 H        -2.217875        -0.440999         0.766529
 H        -1.608039        -0.814445         2.386276
 H        -3.947714         1.347600         1.324427
 H        -3.432349         3.034418         1.559295
 H        -0.456481         2.636884         0.541761
 H        -0.644250         2.779881         3.206696
 H        -1.103738         1.066560         3.966108
 H         1.186060         1.768891         1.950153
 H         1.085678         0.250703         2.863974
