19
Iteration:  1458
 O         0.662920        -0.114010         0.175879
 C        -0.379905         0.496193         1.000316
 C        -1.657330        -0.032600         1.585027
 C        -1.883538         1.501052         1.939662
 C        -3.034353         2.059788         1.252331
 O        -2.347993         1.884582        -0.050786
 C        -1.032757         1.837495         0.721024
 C        -0.806813         1.631003         3.112815
 C         0.439269         1.059827         2.267726
 H         0.160365        -0.554489        -0.591055
 H        -2.464921        -0.332290         0.866362
 H        -1.582830        -0.704155         2.469381
 H        -3.850977         1.393447         1.299393
 H        -3.088616         3.129503         1.591963
 H        -0.559459         2.791266         0.597979
 H        -0.497753         2.632382         3.548789
 H        -1.081298         0.977516         3.953918
 H         1.066523         1.809894         1.843379
 H         0.963089         0.285948         2.784560
