19
Iteration:  2867charge 0 multiplicity 1
 O         0.481758        -0.122345         0.082522
 C        -0.286742         0.601179         0.959914
 C        -1.568139         0.008648         1.494868
 C        -1.828085         1.449479         1.960628
 C        -3.049289         2.063355         1.242490
 O        -2.281646         1.857806        -0.003034
 C        -1.015274         1.902104         0.721696
 C        -0.827757         1.635538         3.119153
 C         0.374857         0.976338         2.420292
 H        -0.198090        -0.730151        -0.331786
 H        -2.263806        -0.381408         0.713379
 H        -1.338807        -0.837060         2.213086
 H        -3.915396         1.516372         1.228118
 H        -3.284923         3.045078         1.536527
 H        -0.548915         2.798115         0.541177
 H        -0.560538         2.668666         3.388913
 H        -0.931794         1.036929         4.053143
 H         1.284925         1.742706         2.333889
 H         0.796993         0.127533         2.933855
