19
Iteration:  3146
 O         0.580596        -0.118919         0.042192
 C        -0.261364         0.564869         0.986945
 C        -1.642313        -0.031923         1.578602
 C        -1.864869         1.503254         1.964403
 C        -3.022191         2.144570         1.244155
 O        -2.332812         1.789455        -0.045883
 C        -1.054052         1.888868         0.786307
 C        -0.850922         1.574476         3.107612
 C         0.454268         1.038320         2.339322
 H         0.021292        -0.709969        -0.416949
 H        -2.485890        -0.178282         0.868612
 H        -1.735917        -0.702934         2.426938
 H        -3.974514         1.795639         1.311170
 H        -3.022977         3.221911         1.396550
 H        -0.609883         2.837880         0.625947
 H        -0.675362         2.629776         3.566105
 H        -1.112458         0.823223         3.939717
 H         1.336572         1.678576         2.314225
 H         1.030801         0.075873         2.846061
