19
Iteration:  2402charge 0 multiplicity 1
 O         0.658922        -0.055360         0.126529
 C        -0.363340         0.475639         0.980604
 C        -1.695834        -0.094824         1.567812
 C        -1.806641         1.488860         1.998618
 C        -2.972730         2.146361         1.310953
 O        -2.343103         1.877804        -0.042545
 C        -1.077597         1.714981         0.676978
 C        -0.817052         1.570869         3.185617
 C         0.369685         1.120353         2.255288
 H         0.277945        -0.232728        -0.811746
 H        -2.457429        -0.457370         0.829928
 H        -1.675165        -0.782965         2.446136
 H        -4.020794         2.028769         1.325181
 H        -2.927654         3.314482         1.470995
 H        -0.172142         2.501802         0.431277
 H        -0.743253         2.581453         3.657849
 H        -1.063095         0.789754         3.971078
 H         0.902882         1.963273         1.858621
 H         1.024971         0.454435         2.682428
