19
Iteration:  1954charge 0 multiplicity 1
 O         0.568700        -0.198451         0.184278
 C        -0.269250         0.598074         1.007742
 C        -1.543816        -0.023240         1.567249
 C        -1.853179         1.493990         1.973790
 C        -3.103895         1.884150         1.310326
 O        -2.363423         2.001129        -0.053570
 C        -1.058834         1.893740         0.716559
 C        -0.792711         1.687500         3.081117
 C         0.460628         1.012503         2.254119
 H         0.049767        -0.626654        -0.556866
 H        -2.245237        -0.443737         0.775571
 H        -1.619449        -0.743412         2.449636
 H        -4.075067         1.224784         1.080589
 H        -3.387281         2.973600         1.339973
 H        -0.533651         2.866224         0.560332
 H        -0.649531         2.688850         3.502320
 H        -1.084449         1.110113         3.950953
 H         1.113331         1.819247         2.076007
 H         0.920066         0.122373         2.715688
