19
Iteration:  2630charge 0 multiplicity 1
 O         0.616793        -0.144416         0.173914
 C        -0.299942         0.560010         0.956837
 C        -1.653848        -0.099287         1.527947
 C        -1.825925         1.480971         1.977133
 C        -2.966166         2.126488         1.337661
 O        -2.311317         1.901947        -0.000550
 C        -1.047097         1.869212         0.665682
 C        -0.871251         1.577391         3.129742
 C         0.333224         1.029915         2.236548
 H         0.112729        -0.476914        -0.643248
 H        -2.331058        -0.531591         0.789493
 H        -1.549717        -0.820552         2.329129
 H        -4.121952         1.900629         1.457754
 H        -2.924142         3.166853         1.456837
 H        -0.536036         2.833835         0.549784
 H        -0.723979         2.636777         3.423896
 H        -1.135145         0.870877         3.910744
 H         1.046995         1.848866         2.054637
 H         1.085451         0.303267         2.833676
