19
Iteration:   754
 O         0.609091        -0.093302         0.137807
 C        -0.303222         0.499372         0.984052
 C        -1.632733        -0.115934         1.644750
 C        -1.877335         1.423757         1.967720
 C        -3.070945         2.071047         1.252225
 O        -2.399226         1.948904        -0.037084
 C        -1.127119         1.819288         0.651523
 C        -0.697426         1.665659         3.066356
 C         0.408718         1.040248         2.240895
 H         1.370194        -0.293957         0.657872
 H        -2.399344        -0.463105         0.861939
 H        -1.555028        -0.779746         2.560622
 H        -4.027512         1.571893         1.358128
 H        -3.241305         3.084085         1.596742
 H        -0.529822         2.681191         0.385290
 H        -0.571711         2.718006         3.275671
 H        -0.988660         1.238993         4.049503
 H         1.056868         1.924535         2.085113
 H         0.958412         0.176746         2.771214
