19
Iteration:  1933charge 0 multiplicity 1
 O         0.550560        -0.262247         0.125420
 C        -0.251132         0.590815         0.948978
 C        -1.515156        -0.005008         1.526132
 C        -1.784595         1.477155         1.926384
 C        -3.056147         2.043746         1.279544
 O        -2.414026         1.912942         0.004238
 C        -1.064248         1.884238         0.634380
 C        -0.859948         1.574011         3.175592
 C         0.435070         1.199738         2.391438
 H        -0.003619        -0.876177        -0.440349
 H        -2.166754        -0.428645         0.688893
 H        -1.496328        -0.899447         2.280692
 H        -3.995269         1.297026         1.153305
 H        -3.397139         3.088675         1.488587
 H        -0.548807         2.839011         0.536209
 H        -0.636357         2.573079         3.570213
 H        -0.850215         0.975382         4.049726
 H         1.005712         1.998266         2.061822
 H         0.895106         0.239238         2.860861
