19
Iteration:  2820charge 0 multiplicity 1
 O         0.620915        -0.111466         0.216250
 C        -0.345075         0.522698         0.975528
 C        -1.616425        -0.103510         1.542345
 C        -1.792873         1.407330         1.956027
 C        -3.025394         2.031663         1.294352
 O        -2.344603         2.066674         0.027628
 C        -1.036107         1.847050         0.617527
 C        -0.813161         1.649123         3.041007
 C         0.373856         0.967211         2.304170
 H         0.132684        -0.320367        -0.547040
 H        -2.411489        -0.461501         0.811854
 H        -1.686149        -0.812472         2.411542
 H        -3.930899         1.353369         1.479686
 H        -3.440879         2.980395         1.432154
 H        -0.368500         2.687847         0.575164
 H        -0.667284         2.729269         3.065653
 H        -1.225580         1.377928         3.988474
 H         1.264933         1.674737         2.274680
 H         0.815675         0.043948         2.749952
