19
Iteration:  3285
 O         0.562271        -0.040240         0.099961
 C        -0.257016         0.610386         1.018320
 C        -1.577028        -0.016188         1.555384
 C        -1.846149         1.447438         1.958315
 C        -3.021119         2.146368         1.253834
 O        -2.401559         1.813215        -0.085219
 C        -1.027083         1.880974         0.637428
 C        -0.815202         1.620183         3.131799
 C         0.397683         0.885081         2.444842
 H        -0.051468        -0.616397        -0.333794
 H        -2.250079        -0.321414         0.696305
 H        -1.539600        -0.839187         2.313353
 H        -4.089826         1.680575         1.354790
 H        -3.086675         3.172990         1.705354
 H        -0.540374         2.890267         0.507143
 H        -0.516984         2.599789         3.234419
 H        -0.962121         1.143604         4.101619
 H         1.338629         1.453355         2.238181
 H         0.713976        -0.028709         2.856849
