19
Iteration:  4083charge 0 multiplicity 1
 O         0.453783        -0.239950         0.102471
 C        -0.239859         0.535917         1.026570
 C        -1.603578         0.018824         1.298826
 C        -1.806621         1.484531         1.977333
 C        -3.031652         2.135522         1.266725
 O        -2.287615         2.083178        -0.005124
 C        -0.912316         1.891488         0.694410
 C        -0.949746         1.501196         3.236237
 C         0.346303         0.933298         2.359065
 H         1.281190        -0.562629         0.401182
 H        -2.154766        -0.040641         0.349450
 H        -1.740946        -0.822035         1.965396
 H        -3.866068         1.467484         1.352142
 H        -3.349738         3.158231         1.569828
 H        -0.261388         2.662158         0.374129
 H        -0.821687         2.433077         3.894106
 H        -1.406076         0.654412         3.779264
 H         1.192174         1.881645         2.334361
 H         0.670492         0.063435         3.020410
