19
Iteration:    83
 O         0.687836        -0.153960         0.212396
 C        -0.263037         0.628642         0.962759
 C        -1.452354        -0.055733         1.626039
 C        -1.784941         1.412983         1.962687
 C        -3.075672         1.956558         1.301714
 O        -2.543829         1.796783        -0.030596
 C        -1.184924         1.878947         0.612556
 C        -0.776534         1.800823         3.002481
 C         0.390023         1.044335         2.349087
 H         0.362822        -0.168841        -0.687814
 H        -2.138585        -0.425144         0.856121
 H        -1.390770        -0.871828         2.406662
 H        -3.970602         1.334825         1.521752
 H        -3.311984         2.985207         1.665537
 H        -0.685154         2.948522         0.574317
 H        -0.468579         2.885853         2.853547
 H        -1.037738         1.529248         4.081982
 H         1.219333         1.749788         2.082124
 H         0.720054         0.133168         2.844094
