19
Iteration:  3529charge 0 multiplicity 1
 O         0.690250        -0.046496         0.138024
 C        -0.357370         0.520267         0.941114
 C        -1.718531        -0.093409         1.495820
 C        -1.867656         1.435044         2.012505
 C        -3.016134         2.118358         1.290604
 O        -2.307060         1.993829        -0.032260
 C        -1.039867         1.793978         0.737299
 C        -0.809114         1.593365         3.107934
 C         0.387696         0.935756         2.333835
 H         0.114354        -0.635625        -0.458747
 H        -2.489153        -0.317187         0.710025
 H        -1.743176        -0.897881         2.266624
 H        -3.977148         1.595156         1.159228
 H        -3.119105         3.131830         1.568471
 H        -0.414863         2.661736         0.512298
 H        -0.586199         2.691125         3.086731
 H        -1.052658         1.377008         4.140489
 H         1.189556         1.819138         2.164698
 H         0.840042         0.169794         3.042533
