19
Iteration:  2162charge 0 multiplicity 1
 O         0.575569        -0.136777         0.107129
 C        -0.264746         0.567122         0.989618
 C        -1.561042         0.047562         1.618802
 C        -1.823297         1.494492         1.948276
 C        -3.010788         2.112631         1.230575
 O        -2.354536         1.760833        -0.022598
 C        -1.098583         1.862648         0.690024
 C        -0.829301         1.563169         3.151417
 C         0.394135         1.029808         2.286957
 H         0.036924        -0.130005        -0.723930
 H        -2.381287        -0.238394         0.916803
 H        -1.510215        -0.679711         2.508097
 H        -4.023068         1.663319         1.387289
 H        -3.141818         3.194901         1.329907
 H        -0.706840         2.939825         0.606446
 H        -0.783022         2.587017         3.543137
 H        -1.075850         0.864084         4.015565
 H         1.306307         1.823613         2.168652
 H         0.905331         0.244443         2.818450
