19
Iteration:   510charge 0 multiplicity 1
 O         0.474063        -0.292388         0.115249
 C        -0.170533         0.585868         0.970179
 C        -1.462718        -0.073176         1.434176
 C        -1.824199         1.347685         1.941991
 C        -3.091094         2.124952         1.304496
 O        -2.439063         1.856842         0.019676
 C        -1.072458         1.909528         0.641806
 C        -0.908066         1.663373         3.164757
 C         0.447067         1.134281         2.373449
 H         1.387358        -0.028784        -0.186345
 H        -2.201057        -0.412450         0.684970
 H        -1.506884        -0.891821         2.128226
 H        -4.088642         1.710355         1.500825
 H        -3.026412         3.155718         1.584083
 H        -0.551010         2.980830         0.439575
 H        -0.727710         2.765978         3.159325
 H        -1.115150         1.233508         4.159934
 H         1.160815         2.058107         2.328653
 H         0.918038         0.464056         2.981912
