19
Iteration:  3968charge 0 multiplicity 1
 O         0.496336        -0.140923         0.114807
 C        -0.329496         0.576184         0.958831
 C        -1.628577        -0.014429         1.499000
 C        -1.858759         1.414919         1.972264
 C        -3.013583         2.111074         1.164638
 O        -2.227728         2.135886        -0.073358
 C        -0.949370         1.955609         0.734684
 C        -0.883041         1.409424         3.225958
 C         0.383576         0.937785         2.404906
 H         0.178821        -1.005759        -0.085572
 H        -2.260157        -0.301734         0.615800
 H        -1.539563        -0.820841         2.246665
 H        -3.987873         1.521401         1.007936
 H        -3.273551         3.095571         1.277310
 H        -0.276600         2.747147         0.806777
 H        -0.813481         2.373432         3.709749
 H        -1.268084         0.646828         3.894637
 H         1.419543         1.581785         2.421112
 H         0.712581        -0.037965         2.828271
