19
Iteration:  3023
 O         0.605405        -0.121601         0.061895
 C        -0.249041         0.499750         0.966618
 C        -1.631918        -0.118980         1.533064
 C        -1.803475         1.469838         1.959443
 C        -3.026322         2.187435         1.313594
 O        -2.345427         1.870014        -0.015549
 C        -1.044537         1.817320         0.729469
 C        -0.863347         1.634372         3.120014
 C         0.359955         1.037338         2.345906
 H         0.066165        -0.360508        -0.683652
 H        -2.315566        -0.471162         0.733875
 H        -1.726148        -0.711217         2.493541
 H        -3.988921         1.825773         1.223004
 H        -3.043178         3.241915         1.522168
 H        -0.556047         2.698033         0.607972
 H        -0.612110         2.638612         3.524690
 H        -1.129769         1.000932         4.040906
 H         1.060395         1.872374         2.008075
 H         1.028744         0.352060         3.081092
