19
Iteration:  3902charge 0 multiplicity 1
 O         0.540044        -0.163991         0.157674
 C        -0.274685         0.508544         0.980592
 C        -1.595913        -0.059975         1.391652
 C        -1.818616         1.430524         1.915450
 C        -2.966972         2.220662         1.317428
 O        -2.343793         2.018522        -0.043131
 C        -1.014698         1.954304         0.729123
 C        -0.918709         1.566435         3.087242
 C         0.312805         0.767974         2.408900
 H         1.470460         0.184173         0.320667
 H        -2.242059        -0.212546         0.489289
 H        -1.621027        -0.873416         2.162313
 H        -4.049701         1.845041         1.473374
 H        -2.996619         3.210307         1.685180
 H        -0.613275         2.879316         0.656238
 H        -0.746635         2.655215         3.134090
 H        -1.154537         1.138073         4.053269
 H         1.296301         1.427715         2.318851
 H         0.667934        -0.199888         2.816977
