19
Iteration:  4426
 O         0.573946        -0.002512        -0.017979
 C        -0.342531         0.523300         0.968055
 C        -1.716341        -0.050072         1.417187
 C        -1.748784         1.552633         1.954213
 C        -2.969681         2.175495         1.272363
 O        -2.202485         1.924614         0.008547
 C        -0.995215         1.858173         0.694412
 C        -0.880221         1.584864         3.203032
 C         0.211452         0.777311         2.477744
 H         0.832171        -0.811610         0.400333
 H        -2.520999        -0.149214         0.659148
 H        -1.537616        -0.884174         2.060541
 H        -3.953124         1.643905         1.406691
 H        -2.928978         3.268126         1.349549
 H        -0.382182         2.810371         0.459570
 H        -0.475620         2.492256         3.534082
 H        -1.335722         0.991911         4.004832
 H         1.078469         1.382634         2.383468
 H         0.413863        -0.158828         2.953650
