19
Iteration:  1816
 O         0.542992        -0.167925         0.115654
 C        -0.272988         0.573102         1.023342
 C        -1.559114        -0.056019         1.560696
 C        -1.800405         1.520612         1.981410
 C        -3.088642         2.004938         1.220373
 O        -2.325372         1.883463        -0.055010
 C        -1.060618         1.874322         0.756027
 C        -0.812333         1.580367         3.106600
 C         0.426890         1.100571         2.282392
 H        -0.105860        -0.685332        -0.294052
 H        -2.300590        -0.513506         0.945187
 H        -1.406807        -0.713437         2.378055
 H        -4.079503         1.619885         1.075799
 H        -3.273905         3.179691         1.530951
 H        -0.630273         2.896689         0.798103
 H        -0.755823         2.637230         3.478033
 H        -1.023891         1.009016         4.054898
 H         0.999145         1.967624         1.952050
 H         0.943413         0.366923         2.849783
