19
Iteration:  4934
 O         0.641161        -0.171378         0.286821
 C        -0.352849         0.506941         0.908764
 C        -1.682333        -0.040430         1.422728
 C        -1.735083         1.482895         1.874159
 C        -2.949628         2.239421         1.400953
 O        -2.325557         2.085768        -0.002192
 C        -0.946968         1.837915         0.588302
 C        -0.933710         1.477782         3.106674
 C         0.261451         0.868180         2.377660
 H         0.755652         0.058844        -0.687206
 H        -2.533317        -0.277810         0.814443
 H        -1.830983        -0.900942         2.074201
 H        -3.831689         1.688064         1.564819
 H        -3.082754         3.309455         1.449642
 H        -0.337339         2.662489         0.372414
 H        -0.843213         2.427865         3.753355
 H        -1.296387         0.801972         3.906909
 H         1.080725         1.552379         2.162697
 H         0.778365        -0.030611         2.800224
