19
Iteration:  3066charge 0 multiplicity 1
 O         0.654798        -0.230492         0.267579
 C        -0.339787         0.542191         0.986987
 C        -1.599089        -0.124648         1.451590
 C        -1.818456         1.484651         1.941000
 C        -3.094974         2.057405         1.298282
 O        -2.422120         2.015750        -0.009713
 C        -1.119788         1.958967         0.620911
 C        -0.685392         1.694444         3.138163
 C         0.365137         0.922001         2.288477
 H         0.751612        -0.025277        -0.633270
 H        -2.382940        -0.451457         0.726362
 H        -1.306082        -0.904209         2.239964
 H        -3.871901         1.367143         1.480023
 H        -3.431360         3.084018         1.422196
 H        -0.629754         2.878290         0.628845
 H        -0.531650         2.731056         3.404863
 H        -0.916149         1.167269         4.105232
 H         1.221442         1.573109         1.999263
 H         0.714839        -0.012564         2.712671
