19
Iteration:  4041charge 0 multiplicity 1
 O         0.697591        -0.046497         0.073471
 C        -0.269809         0.462234         0.988831
 C        -1.716846        -0.137098         1.547523
 C        -1.972206         1.401755         1.950053
 C        -2.996638         2.257364         1.239552
 O        -2.256221         2.180775        -0.027448
 C        -1.044060         1.759746         0.776880
 C        -0.911372         1.550847         3.050301
 C         0.300675         0.815262         2.324340
 H         1.292032        -0.555641         0.678597
 H        -2.380993        -0.459898         0.714415
 H        -1.534106        -0.909521         2.304530
 H        -4.008220         1.996384         1.099129
 H        -3.091932         3.383446         1.770641
 H        -0.363175         2.750419         0.839807
 H        -0.700875         2.680494         3.264253
 H        -0.984681         0.950975         3.952442
 H         1.230144         1.238277         2.191015
 H         0.635423        -0.144515         2.821909
