19
Iteration:  4213charge 0 multiplicity 1
 O         0.593876        -0.222256         0.082755
 C        -0.288056         0.483609         1.012841
 C        -1.764406         0.068590         1.401333
 C        -1.813407         1.505952         2.001970
 C        -3.027279         2.151607         1.210618
 O        -2.220474         2.105922        -0.006040
 C        -0.991801         1.888445         0.721812
 C        -0.914627         1.400721         3.158963
 C         0.427023         0.975462         2.398547
 H         0.353335        -1.155585         0.080625
 H        -2.401912        -0.084725         0.510164
 H        -1.962518        -0.745243         2.076084
 H        -4.064315         1.505585         1.157969
 H        -3.237496         3.269195         1.448038
 H        -0.396400         2.869009         0.744379
 H        -0.816315         2.281580         3.810304
 H        -1.096275         0.525475         3.777765
 H         1.059642         1.895167         2.222653
 H         0.902260         0.207269         2.980701
