19
Iteration:   569charge 0 multiplicity 1
 O         0.580755        -0.080221         0.049048
 C        -0.286268         0.458064         1.010298
 C        -1.689420        -0.067222         1.640359
 C        -1.834006         1.487626         2.013893
 C        -3.064292         1.956743         1.215274
 O        -2.295234         1.930518        -0.035872
 C        -1.078799         1.716024         0.745289
 C        -0.759555         1.738016         3.105201
 C         0.364515         1.057518         2.248118
 H         0.929217         0.672267        -0.398969
 H        -2.559328        -0.285017         0.994351
 H        -1.562394        -0.724594         2.552255
 H        -3.952714         1.283060         1.334364
 H        -3.531797         2.988154         1.398849
 H        -0.382121         2.633552         0.649992
 H        -0.548252         2.758215         3.398833
 H        -0.961797         1.191897         4.021289
 H         1.106134         1.725999         1.972286
 H         0.903369         0.374567         3.031939
