19
Iteration:  2977charge 0 multiplicity 1
 O         0.541741        -0.132188         0.072377
 C        -0.317132         0.546317         0.987478
 C        -1.575948        -0.001101         1.586721
 C        -1.810237         1.497985         1.926570
 C        -3.101917         1.982021         1.235786
 O        -2.286444         1.967884        -0.020441
 C        -1.039074         1.865935         0.754531
 C        -0.801352         1.652967         3.085735
 C         0.387448         0.966889         2.362558
 H        -0.075711        -0.602426        -0.489366
 H        -2.315746        -0.388110         0.864976
 H        -1.431937        -0.761197         2.438804
 H        -3.953495         1.342739         1.341808
 H        -3.324084         3.006372         1.456287
 H        -0.473075         2.737350         0.822496
 H        -0.603181         2.689497         3.297455
 H        -1.062847         1.184684         4.041986
 H         1.327325         1.622610         2.171920
 H         0.764976         0.061188         2.858938
