19
Iteration:  4119charge 0 multiplicity 1
 O         0.447232        -0.171757         0.094899
 C        -0.311646         0.524404         1.006822
 C        -1.616595        -0.071316         1.493053
 C        -1.880265         1.465360         1.968838
 C        -3.004325         2.132823         1.159161
 O        -2.176127         2.082643        -0.064590
 C        -0.982529         1.907888         0.788012
 C        -0.900680         1.525741         3.206111
 C         0.310994         0.861484         2.321111
 H         1.264655         0.313227        -0.035965
 H        -2.385344        -0.410006         0.762667
 H        -1.532889        -0.865125         2.267819
 H        -3.924695         1.629182         1.170095
 H        -3.095932         3.305766         1.376492
 H        -0.370689         2.892831         0.780022
 H        -0.600054         2.528206         3.677894
 H        -1.178483         0.876853         4.053673
 H         1.207990         1.510762         2.264133
 H         0.728123        -0.120769         2.787310
