19
Iteration:  3709charge 0 multiplicity 1
 O         0.514769        -0.115924         0.009250
 C        -0.283854         0.494337         1.030065
 C        -1.663117        -0.040487         1.593061
 C        -1.857581         1.461484         2.014929
 C        -3.019462         2.106724         1.165090
 O        -2.187868         2.013917        -0.030478
 C        -1.015546         1.828142         0.788110
 C        -0.911542         1.611960         3.153533
 C         0.397542         0.950986         2.324192
 H         0.080304        -0.328308        -0.810074
 H        -2.414675        -0.300089         0.848805
 H        -1.463973        -0.801244         2.313987
 H        -3.769413         1.423490         1.128065
 H        -3.337068         3.089144         1.576448
 H        -0.436497         2.651307         0.689116
 H        -0.751054         2.658240         3.399869
 H        -1.131293         0.998916         4.075754
 H         1.221673         1.657510         2.248331
 H         0.853804         0.021078         2.952002
