19
Iteration:  1842charge 0 multiplicity 1
 O         0.531521        -0.136844         0.103056
 C        -0.277647         0.581136         0.991471
 C        -1.545313         0.001827         1.505576
 C        -1.803893         1.474389         2.061397
 C        -3.062421         1.943659         1.297185
 O        -2.371235         1.870826        -0.008702
 C        -0.972760         1.862830         0.562018
 C        -0.819879         1.750461         3.117408
 C         0.404902         0.965625         2.409689
 H         0.039263        -0.204499        -0.678610
 H        -2.275327        -0.251109         0.707757
 H        -1.499933        -0.828667         2.278397
 H        -4.085111         1.352582         1.154437
 H        -3.453077         2.908849         1.556170
 H        -0.448738         2.866647         0.430637
 H        -0.850419         2.849985         3.233061
 H        -1.003238         1.294614         4.103857
 H         1.290243         1.585276         2.285293
 H         0.487521         0.112408         2.997049
