19
Iteration:  2491charge 0 multiplicity 1
 O         0.702739        -0.123666         0.157564
 C        -0.325732         0.503707         0.987213
 C        -1.627006        -0.111386         1.540490
 C        -1.816148         1.472468         1.987643
 C        -3.042866         2.123903         1.286947
 O        -2.387467         2.004677        -0.018140
 C        -1.104967         1.795718         0.680665
 C        -0.785093         1.605299         3.095675
 C         0.375690         1.007408         2.312490
 H         0.193478        -0.669289        -0.533603
 H        -2.295732        -0.316559         0.651078
 H        -1.681729        -0.874239         2.383597
 H        -4.002888         1.691058         1.297792
 H        -3.347797         3.172691         1.647861
 H        -0.474416         2.821226         0.511787
 H        -0.725546         2.702784         3.192847
 H        -0.971292         0.967511         4.005760
 H         1.127520         1.748106         2.038289
 H         0.887860         0.287341         2.796186
