19
Iteration:   677charge 0 multiplicity 1
 O         0.515002        -0.232483        -0.004055
 C        -0.256869         0.552178         0.995696
 C        -1.494193        -0.035427         1.597539
 C        -1.881079         1.377678         1.956953
 C        -3.138070         2.002979         1.254607
 O        -2.336613         1.992067         0.004019
 C        -1.062381         1.823190         0.772627
 C        -0.814983         1.734204         3.061484
 C         0.388225         1.060536         2.319537
 H         1.405815        -0.185405         0.374693
 H        -2.313592        -0.544988         1.023318
 H        -1.262141        -0.766452         2.419269
 H        -3.974204         1.301041         1.206524
 H        -3.433491         3.023559         1.534917
 H        -0.582623         2.854394         0.803680
 H        -0.669809         2.808226         2.974100
 H        -1.015757         1.507495         4.122724
 H         1.113909         1.896789         2.051416
 H         0.818492         0.154688         2.892431
