19
Iteration:  4627charge 0 multiplicity 1
 O         0.630693        -0.293962         0.094774
 C        -0.317029         0.524882         0.929595
 C        -1.660280         0.006599         1.414383
 C        -1.811352         1.504102         1.938822
 C        -3.011031         2.065328         1.290946
 O        -2.251620         2.238190         0.022845
 C        -0.959304         1.974892         0.674311
 C        -0.949660         1.499984         3.193114
 C         0.312047         0.876093         2.376475
 H         0.348427        -1.173703         0.482806
 H        -2.404308        -0.239974         0.591665
 H        -1.706865        -0.904844         2.134130
 H        -3.801523         1.361092         1.167814
 H        -3.414583         2.982634         1.712353
 H        -0.332639         2.935876         0.663024
 H        -0.777432         2.538963         3.534295
 H        -1.287434         0.756287         3.907752
 H         1.098233         1.630482         2.156228
 H         0.814754        -0.012229         2.863190
