19
Iteration:    79charge 0 multiplicity 1
 O         0.636080        -0.164175         0.247580
 C        -0.251328         0.626824         0.963507
 C        -1.440247        -0.081002         1.565814
 C        -1.773631         1.404399         1.961329
 C        -3.090972         1.953075         1.336639
 O        -2.532119         1.801661        -0.011184
 C        -1.151388         1.877666         0.587957
 C        -0.792878         1.831609         3.023651
 C         0.391066         1.077248         2.336123
 H         0.387337        -0.011945        -0.700325
 H        -2.140528        -0.491438         0.772628
 H        -1.240839        -0.874124         2.309451
 H        -3.977750         1.301986         1.535299
 H        -3.241288         2.991086         1.609952
 H        -0.677949         2.823272         0.425155
 H        -0.532908         2.817040         2.813974
 H        -1.025296         1.503298         4.045566
 H         1.243449         1.716016         2.165130
 H         0.686690         0.133136         2.858979
