19
Iteration:  2303
 O         0.511381        -0.053381         0.081205
 C        -0.328891         0.531109         1.029530
 C        -1.592222        -0.082530         1.710555
 C        -1.899752         1.402771         1.992890
 C        -3.044712         2.049845         1.161570
 O        -2.288726         1.938566        -0.068190
 C        -1.074251         1.833707         0.704437
 C        -0.733928         1.626674         3.105137
 C         0.415523         1.019602         2.325473
 H         0.099926        -0.187208        -0.806247
 H        -2.191289        -0.617443         0.951152
 H        -1.501637        -0.645536         2.666911
 H        -3.990322         1.586873         1.220992
 H        -3.173396         3.076710         1.645097
 H        -0.403420         2.693183         0.678279
 H        -0.575968         2.702371         3.245050
 H        -1.025032         1.090086         4.038629
 H         1.143932         1.757643         1.991861
 H         0.987821         0.197624         2.716360
