19
Iteration:  1111
 O         0.651832        -0.014734         0.125265
 C        -0.291144         0.550011         0.986296
 C        -1.662026        -0.039889         1.685808
 C        -1.800248         1.474891         2.020409
 C        -3.026753         2.021830         1.293775
 O        -2.409197         1.781027        -0.067761
 C        -1.108872         1.798889         0.643207
 C        -0.809279         1.755844         3.056118
 C         0.435098         1.017191         2.280830
 H         0.045138        -0.491544        -0.460729
 H        -2.331470        -0.427465         0.938296
 H        -1.593217        -0.695175         2.593842
 H        -3.894303         1.327323         1.522791
 H        -3.084426         3.103546         1.294304
 H        -0.552770         2.680904         0.503490
 H        -0.614626         2.798315         3.326825
 H        -1.003392         1.211233         3.948827
 H         1.370895         1.656819         2.032022
 H         0.771125         0.023071         2.694728
