19
Iteration:  2506charge 0 multiplicity 1
 O         0.671077        -0.176586         0.191711
 C        -0.291734         0.512469         0.908338
 C        -1.573978        -0.135794         1.499558
 C        -1.883119         1.383535         1.986351
 C        -2.970755         2.263382         1.330190
 O        -2.410210         1.918722         0.002881
 C        -1.083092         1.827404         0.673343
 C        -0.894927         1.597536         3.152085
 C         0.361762         1.102126         2.244160
 H         0.321197        -0.500007        -0.686875
 H        -2.343249        -0.535712         0.869024
 H        -1.247416        -0.832523         2.280387
 H        -4.065289         1.940838         1.377209
 H        -2.686268         3.266061         1.446772
 H        -0.488673         2.804385         0.696901
 H        -0.649584         2.579681         3.560754
 H        -1.201770         0.948156         4.000005
 H         1.029528         1.982841         2.007626
 H         1.020403         0.251702         2.721116
