19
Iteration:  1654charge 0 multiplicity 1
 O         0.655958        -0.223799         0.197667
 C        -0.234981         0.567806         0.960263
 C        -1.658202         0.008046         1.605224
 C        -1.853965         1.451704         1.971020
 C        -2.997475         2.046024         1.280275
 O        -2.428566         1.903655         0.021825
 C        -1.036705         1.815948         0.596866
 C        -0.880153         1.684585         3.067160
 C         0.403742         1.053969         2.295057
 H         0.465811        -0.170875        -0.797837
 H        -2.284768        -0.262451         0.732199
 H        -1.754560        -0.756779         2.402343
 H        -4.091592         1.592999         1.517385
 H        -3.199991         3.063864         1.527810
 H        -0.454202         2.769288         0.342212
 H        -0.588005         2.644729         3.529917
 H        -0.898068         1.019702         3.988600
 H         1.235862         1.869464         1.965280
 H         0.859072         0.201516         2.886143
