19
Iteration:  1924charge 0 multiplicity 1
 O         0.576647        -0.235101         0.106601
 C        -0.246596         0.592103         0.964172
 C        -1.541990        -0.028486         1.508477
 C        -1.835761         1.467949         1.953785
 C        -3.033419         2.046643         1.339070
 O        -2.407738         1.878442         0.017135
 C        -1.003671         1.842445         0.644948
 C        -0.864698         1.597702         3.131553
 C         0.386412         1.192955         2.323446
 H         0.011780        -0.880158        -0.386277
 H        -2.132142        -0.349223         0.651353
 H        -1.648019        -0.626234         2.433653
 H        -4.000574         1.633387         1.304840
 H        -3.049946         3.060710         1.435203
 H        -0.575023         2.778251         0.459578
 H        -0.889208         2.586039         3.623332
 H        -1.150376         0.883553         3.938724
 H         1.062146         2.054393         2.285150
 H         1.182922         0.418539         2.800939
