19
Iteration:  1875
 O         0.730161        -0.061559         0.145510
 C        -0.295594         0.520067         0.989755
 C        -1.638889        -0.078663         1.633513
 C        -1.879242         1.432845         1.976389
 C        -3.081737         2.089169         1.311294
 O        -2.408068         1.906975        -0.024448
 C        -1.109289         1.785767         0.669871
 C        -0.786422         1.731083         3.056219
 C         0.400504         0.916253         2.308554
 H         0.501070         0.036458        -0.806836
 H        -2.462524        -0.321555         0.922945
 H        -1.381978        -0.819982         2.429580
 H        -4.106088         1.565696         1.085716
 H        -3.233375         3.203096         1.453576
 H        -0.628426         2.829066         0.520672
 H        -0.570244         2.802459         2.984552
 H        -0.795471         1.349577         4.087247
 H         1.379164         1.334883         2.086057
 H         0.668209         0.123044         2.870415
