19
Iteration:  4291charge 0 multiplicity 1
 O         0.559763         0.024384         0.062941
 C        -0.366255         0.479577         0.993844
 C        -1.801048         0.005801         1.397398
 C        -1.770891         1.524341         1.988052
 C        -2.965759         2.151850         1.229790
 O        -2.260522         1.975966        -0.070695
 C        -0.966463         1.828758         0.767201
 C        -0.817646         1.579585         3.169417
 C         0.309028         0.735352         2.449852
 H         1.257725        -0.521511         0.511664
 H        -2.430708         0.042369         0.529777
 H        -2.038039        -0.810010         2.071970
 H        -3.987328         1.485745         1.348322
 H        -3.126284         3.244448         1.551522
 H        -0.243235         2.783736         0.480823
 H        -0.391682         2.551595         3.530685
 H        -1.165122         0.992185         3.995304
 H         1.322825         1.250024         2.279527
 H         0.396253        -0.287760         2.783773
