19
Iteration:  2913
 O         0.723060        -0.192153         0.172514
 C        -0.371127         0.503961         0.969082
 C        -1.620928        -0.106701         1.549693
 C        -1.867574         1.437151         2.019586
 C        -3.109626         2.155445         1.274333
 O        -2.381632         1.984959        -0.008621
 C        -1.058402         1.811957         0.663610
 C        -0.779935         1.586370         3.149788
 C         0.370474         1.060304         2.266562
 H         0.601411         0.179787        -0.775508
 H        -2.312732        -0.510145         0.827217
 H        -1.595526        -0.801739         2.413150
 H        -4.120924         2.019813         1.197189
 H        -3.016714         3.234011         1.388710
 H        -0.468804         2.699444         0.500472
 H        -0.640581         2.668980         3.363248
 H        -0.987853         0.981356         4.117267
 H         1.210863         1.685026         1.815869
 H         0.947761         0.162064         2.737305
