19
Iteration:  2464
 O         0.573511        -0.144283         0.136434
 C        -0.322860         0.568616         0.971892
 C        -1.626395        -0.010452         1.516576
 C        -1.770122         1.544955         1.964849
 C        -3.080988         1.873785         1.251650
 O        -2.342173         2.021915         0.014700
 C        -1.021807         1.899871         0.728701
 C        -0.774967         1.728189         3.065963
 C         0.396417         0.883715         2.366920
 H         0.036171        -0.500680        -0.660075
 H        -2.327182        -0.266609         0.762348
 H        -1.600343        -0.634922         2.365376
 H        -3.903257         0.996735         1.259044
 H        -3.564838         2.794411         1.549749
 H        -0.478316         2.737539         0.592956
 H        -0.567436         2.792365         3.008313
 H        -1.052868         1.346830         4.019300
 H         1.369308         1.419755         2.294056
 H         0.636223        -0.192230         2.907447
