19
Iteration:  4702
 O         0.527426        -0.061857         0.125466
 C        -0.283419         0.492553         1.058760
 C        -1.713650         0.006641         1.485263
 C        -1.781894         1.504306         1.915744
 C        -3.031973         2.170384         1.232708
 O        -2.221153         2.014618        -0.063739
 C        -0.938539         1.892348         0.678734
 C        -0.896435         1.449934         3.178740
 C         0.341658         0.738547         2.418546
 H         0.259666         0.423837        -0.638837
 H        -2.369314        -0.167986         0.609987
 H        -1.902063        -0.738806         2.288260
 H        -3.951031         1.539528         1.256711
 H        -3.177460         3.298683         1.433242
 H        -0.304119         2.892312         0.394783
 H        -0.465074         2.416773         3.507974
 H        -1.319438         1.015285         4.131723
 H         1.074073         1.520494         2.380575
 H         0.746459        -0.111520         2.938478
