19
Iteration:  1883charge 0 multiplicity 1
 O         0.731696        -0.053104         0.175750
 C        -0.283184         0.517991         0.989342
 C        -1.662349        -0.075676         1.604596
 C        -1.864766         1.371827         1.983393
 C        -3.108343         2.111465         1.220353
 O        -2.409640         1.904637        -0.006753
 C        -1.127440         1.784888         0.695122
 C        -0.750386         1.714969         3.061040
 C         0.388380         0.982759         2.280005
 H         0.319054        -0.051434        -0.755067
 H        -2.422441        -0.511383         1.025015
 H        -1.428515        -0.844047         2.296771
 H        -4.137876         1.705837         1.393846
 H        -2.952195         3.257103         1.631749
 H        -0.432881         2.616615         0.380933
 H        -0.501938         2.777463         3.279486
 H        -0.865574         1.350674         4.145071
 H         1.349145         1.535903         1.986701
 H         0.651707         0.029464         2.820102
