19
Iteration:  4239
 O         0.449059        -0.155354         0.059525
 C        -0.295374         0.504418         0.994419
 C        -1.584710        -0.120647         1.420224
 C        -1.836715         1.343661         1.992188
 C        -2.928438         2.187262         1.255682
 O        -2.173511         2.180908        -0.023828
 C        -0.957183         1.900027         0.701288
 C        -1.034458         1.551386         3.176831
 C         0.322126         0.924492         2.383900
 H         0.444649        -1.118037         0.163731
 H        -2.256963        -0.426158         0.630172
 H        -1.508634        -0.951440         2.169888
 H        -3.903596         1.710971         1.133543
 H        -2.985975         3.154177         1.645226
 H        -0.447587         2.756800         0.833877
 H        -0.785614         2.592788         3.522114
 H        -1.155138         0.886980         4.030316
 H         0.962779         1.882852         2.204975
 H         0.840597         0.016569         2.906121
