19
Iteration:  1413charge 0 multiplicity 1
 O         0.425956        -0.253287         0.090739
 C        -0.232786         0.546133         0.962581
 C        -1.510112        -0.025762         1.594115
 C        -1.798703         1.421708         1.943558
 C        -3.092720         2.029629         1.279449
 O        -2.308222         1.880792        -0.062320
 C        -1.081401         1.918653         0.730626
 C        -0.862799         1.726398         3.109911
 C         0.430596         1.043379         2.381267
 H         0.849670         0.362859        -0.574728
 H        -2.239736        -0.473322         0.939952
 H        -1.225857        -0.801829         2.313222
 H        -3.960030         1.442601         1.274744
 H        -3.128454         3.124302         1.227304
 H        -0.543314         2.823523         0.566637
 H        -0.891717         2.744040         3.525743
 H        -1.070055         1.127282         4.002638
 H         1.194715         1.800909         2.174582
 H         0.736384         0.270088         2.988149
