19
Iteration:  1306
 O         0.524662        -0.144849         0.050077
 C        -0.263171         0.548853         1.020574
 C        -1.542764        -0.048325         1.626860
 C        -1.885766         1.487279         1.987775
 C        -3.069647         2.011439         1.236648
 O        -2.325963         1.823962         0.003415
 C        -1.031879         1.834880         0.731744
 C        -0.860347         1.678298         3.100381
 C         0.436842         1.116229         2.301787
 H        -0.120838        -0.653733        -0.470884
 H        -2.196722        -0.430329         0.833557
 H        -1.395468        -0.817986         2.470537
 H        -4.014785         1.662948         0.983533
 H        -3.263598         3.050473         1.380059
 H        -0.410288         2.790730         0.608919
 H        -0.605230         2.787634         3.326198
 H        -1.061822         1.174541         4.038657
 H         1.061805         1.927288         2.005896
 H         1.263310         0.484850         2.813013
