19
Iteration:  3085
 O         0.654483        -0.190802         0.200988
 C        -0.270173         0.541249         0.961116
 C        -1.652787         0.011677         1.565539
 C        -1.878657         1.434576         1.997419
 C        -3.135977         1.996910         1.252320
 O        -2.339144         2.033912         0.029340
 C        -1.078278         1.824008         0.740889
 C        -0.759975         1.659178         3.019513
 C         0.431714         0.945445         2.249827
 H         0.527124        -0.145411        -0.747114
 H        -2.423372        -0.147806         0.818896
 H        -1.815714        -0.700772         2.406955
 H        -4.081741         1.289960         1.110855
 H        -3.443084         3.034685         1.628407
 H        -0.296930         2.776192         0.683236
 H        -0.571474         2.718986         3.078471
 H        -0.935702         1.297472         4.000770
 H         1.203746         1.697752         2.029566
 H         0.760153         0.121394         2.783809
