19
Iteration:  1685charge 0 multiplicity 1
 O         0.476350        -0.171724         0.096758
 C        -0.269605         0.573258         0.968183
 C        -1.567707        -0.157871         1.640598
 C        -1.865713         1.374250         1.981734
 C        -2.967616         2.110654         1.204509
 O        -2.314665         1.891878        -0.076485
 C        -1.049908         1.835558         0.730423
 C        -0.890964         1.697349         3.176849
 C         0.440871         1.126717         2.338187
 H        -0.068722        -0.421941        -0.637254
 H        -2.129109        -0.538565         0.785596
 H        -1.450110        -0.818440         2.447437
 H        -4.002890         1.568432         1.290844
 H        -3.166820         3.173885         1.278421
 H        -0.724275         2.936100         0.755729
 H        -0.538975         2.706999         3.387698
 H        -0.828280         1.011291         4.078821
 H         1.052319         2.015523         1.939675
 H         1.151536         0.510765         2.776128
