19
Iteration:  1258charge 0 multiplicity 1
 O         0.598641        -0.200542         0.083696
 C        -0.272204         0.561770         0.989142
 C        -1.548188        -0.038388         1.611088
 C        -1.812716         1.464854         1.930970
 C        -3.133923         1.983581         1.306578
 O        -2.393462         1.900225         0.002479
 C        -1.084599         1.810703         0.593303
 C        -0.800837         1.770582         3.073912
 C         0.416357         0.971255         2.419995
 H         0.946085         0.491274        -0.514381
 H        -2.363193        -0.331845         0.931840
 H        -1.592890        -0.655686         2.475232
 H        -4.002945         1.339947         1.571968
 H        -3.488482         3.061791         1.277670
 H        -0.588231         2.781382         0.485457
 H        -0.697725         2.852603         2.959706
 H        -1.127027         1.652374         4.168843
 H         1.423364         1.578791         2.250206
 H         0.875452         0.122051         2.826735
