19
Iteration:  1138
 O         0.543019        -0.084005         0.019523
 C        -0.230246         0.569276         0.984336
 C        -1.504986        -0.046163         1.526889
 C        -1.813377         1.490867         2.038955
 C        -3.150336         2.017866         1.291914
 O        -2.401294         1.791249        -0.009523
 C        -1.072382         1.805335         0.699229
 C        -0.803743         1.829845         3.059345
 C         0.385117         0.998001         2.393924
 H         0.429575        -1.025066         0.241828
 H        -2.186158        -0.430416         0.697485
 H        -1.403142        -0.859902         2.264221
 H        -4.002361         1.398199         1.433755
 H        -3.303014         3.125554         1.214057
 H        -0.434618         2.789955         0.526176
 H        -0.527076         2.905629         3.123002
 H        -0.921769         1.563216         4.200750
 H         1.409964         1.553823         2.270307
 H         0.780221         0.075467         2.841436
