19
Iteration:  2485
 O         0.676492        -0.099627         0.153501
 C        -0.289924         0.497439         1.034559
 C        -1.669355        -0.059299         1.556310
 C        -1.835734         1.433225         1.979923
 C        -3.102590         2.090735         1.331618
 O        -2.371939         2.019153        -0.022015
 C        -1.054690         1.825642         0.614937
 C        -0.771365         1.639742         3.074907
 C         0.394360         0.967390         2.304575
 H         0.201277        -0.640308        -0.446423
 H        -2.268965        -0.233958         0.689375
 H        -1.705265        -0.838671         2.298256
 H        -4.004071         1.365663         1.192345
 H        -3.377920         3.100498         1.554170
 H        -0.427525         2.660508         0.588409
 H        -0.658054         2.710861         3.277902
 H        -0.972139         1.065729         3.972006
 H         1.225627         1.648694         1.972459
 H         0.904458         0.106936         2.951086
