19
Iteration:  2908
 O         0.696295        -0.162095         0.136526
 C        -0.327541         0.478206         0.939735
 C        -1.640881        -0.077193         1.548920
 C        -1.858662         1.403236         2.027001
 C        -3.076211         2.190459         1.259749
 O        -2.384151         1.976924        -0.023131
 C        -1.067331         1.771733         0.641777
 C        -0.737520         1.572115         3.168528
 C         0.347887         1.063354         2.332679
 H         0.639933        -0.017267        -0.780109
 H        -2.523832        -0.486601         0.963913
 H        -1.541919        -0.745699         2.443860
 H        -4.222360         1.843072         1.139496
 H        -3.088267         3.300191         1.398606
 H        -0.478188         2.749221         0.614540
 H        -0.693162         2.609547         3.479293
 H        -0.982331         1.044042         4.029513
 H         1.090738         1.804816         1.917933
 H         0.965264         0.422710         2.872793
