19
Iteration:  4300
 O         0.546867        -0.025805         0.079208
 C        -0.307186         0.566269         0.972540
 C        -1.835920         0.056067         1.404662
 C        -1.810639         1.481283         1.969512
 C        -2.945575         2.135524         1.288475
 O        -2.264821         1.948250        -0.051663
 C        -0.913834         1.864723         0.662078
 C        -0.799325         1.501076         3.179327
 C         0.279996         0.771532         2.393522
 H         1.226306        -0.529729         0.594459
 H        -2.570505        -0.096720         0.599405
 H        -1.943903        -0.673046         2.205089
 H        -3.950924         1.657483         1.223287
 H        -3.145290         3.240689         1.429217
 H        -0.277892         2.925899         0.797392
 H        -0.583792         2.532560         3.522905
 H        -1.033506         0.942124         4.095806
 H         1.178688         1.254281         2.678388
 H         0.413475        -0.134637         2.871825
