19
Iteration:  3264charge 0 multiplicity 1
 O         0.624832        -0.048597         0.066433
 C        -0.302395         0.516011         1.000993
 C        -1.638916         0.023412         1.579887
 C        -1.784676         1.582158         2.022583
 C        -3.085087         2.160534         1.174724
 O        -2.332623         1.798973        -0.048790
 C        -1.095206         1.831628         0.682107
 C        -0.810833         1.572679         3.204295
 C         0.408394         0.953779         2.349411
 H         0.221210        -0.720895        -0.575958
 H        -2.506417        -0.283817         0.954970
 H        -1.498200        -0.630505         2.472370
 H        -3.991349         1.475200         1.246274
 H        -3.399679         3.267567         1.408463
 H        -0.423244         2.762131         0.521670
 H        -0.488245         2.399954         3.740928
 H        -1.142427         0.739523         3.827465
 H         1.241467         1.608797         2.201231
 H         0.855042         0.089690         2.663019
