19
Iteration:  1921charge 0 multiplicity 1
 O         0.586587        -0.217442         0.107888
 C        -0.236355         0.568221         0.976203
 C        -1.556027        -0.024280         1.509912
 C        -1.828010         1.449569         1.969179
 C        -3.028035         2.059520         1.329962
 O        -2.395138         1.866757         0.009911
 C        -1.019714         1.843101         0.646832
 C        -0.874739         1.603339         3.132669
 C         0.398419         1.181752         2.303935
 H        -0.015500        -0.796789        -0.310499
 H        -2.207180        -0.330196         0.630134
 H        -1.578662        -0.653103         2.460558
 H        -4.146773         1.640384         1.469558
 H        -3.014102         3.162048         1.544803
 H        -0.494459         2.808937         0.420505
 H        -0.913880         2.605458         3.552330
 H        -1.238303         0.863228         3.817717
 H         1.016031         2.036111         2.247387
 H         1.103082         0.486901         2.769624
