19
Iteration:  4631charge 0 multiplicity 1
 O         0.626017        -0.276038         0.095338
 C        -0.316935         0.493361         0.951880
 C        -1.667029        -0.019857         1.410060
 C        -1.776383         1.478540         1.926524
 C        -3.002392         2.060943         1.298043
 O        -2.268687         2.255327         0.016507
 C        -0.952589         1.976674         0.647704
 C        -0.934331         1.517120         3.182034
 C         0.297393         0.885745         2.407627
 H         0.354926        -1.132525         0.402498
 H        -2.415346        -0.163066         0.605816
 H        -1.726821        -0.862196         2.121076
 H        -3.886891         1.381618         1.140098
 H        -3.315216         3.049611         1.714758
 H        -0.436413         2.870338         0.654665
 H        -0.900639         2.576116         3.643373
 H        -1.225794         0.721431         3.916668
 H         1.121804         1.607837         2.148498
 H         0.783785        -0.023823         2.883284
