19
Iteration:  2085
 O         0.584310        -0.276543         0.173019
 C        -0.265288         0.497476         0.975985
 C        -1.486675        -0.085943         1.534157
 C        -1.891058         1.394761         1.989843
 C        -3.062763         1.970308         1.312082
 O        -2.378639         2.101788         0.001717
 C        -1.101129         1.841203         0.731508
 C        -0.804266         1.755962         3.027902
 C         0.382152         1.090812         2.294853
 H         0.060432        -0.516162        -0.679653
 H        -2.039873        -0.399758         0.621957
 H        -1.285091        -0.958289         2.251229
 H        -3.933211         1.288103         1.079207
 H        -3.284777         3.000447         1.677803
 H        -0.430558         2.834884         0.657200
 H        -0.568217         2.804909         3.171081
 H        -1.298871         1.314938         3.917152
 H         1.204319         1.889701         2.215046
 H         0.868040         0.353153         2.815451
