19
Iteration:  1474charge 0 multiplicity 1
 O         0.690961        -0.107446         0.165146
 C        -0.222156         0.550353         0.961634
 C        -1.662641        -0.103840         1.613325
 C        -1.798471         1.386811         2.037995
 C        -3.063579         2.133387         1.266624
 O        -2.388638         1.951090        -0.033859
 C        -1.136205         1.811290         0.635603
 C        -0.796739         1.672580         3.078048
 C         0.351425         1.000432         2.282494
 H         0.322720        -0.862850        -0.305038
 H        -2.322744        -0.407183         0.801596
 H        -1.579234        -0.813192         2.447264
 H        -4.150080         1.786597         1.209726
 H        -3.104172         3.211194         1.377885
 H        -0.523982         2.782314         0.654297
 H        -0.780205         2.780873         3.034587
 H        -0.946475         1.191000         4.065646
 H         1.200545         1.753113         2.233797
 H         0.825368         0.059644         2.784484
