19
Iteration:   357charge 0 multiplicity 1
 O         0.623280        -0.165001         0.222735
 C        -0.261963         0.514968         1.003335
 C        -1.607207        -0.124518         1.497533
 C        -1.789111         1.519600         1.978410
 C        -3.036049         2.020925         1.327973
 O        -2.481007         1.871419        -0.066378
 C        -1.078139         1.817239         0.633206
 C        -0.770264         1.659800         3.116459
 C         0.381772         1.110455         2.293206
 H         0.705128         0.231997        -0.618433
 H        -2.339484        -0.297956         0.620262
 H        -1.624833        -0.681145         2.423627
 H        -4.063724         1.596760         1.501734
 H        -3.125045         3.161809         1.425803
 H        -0.515408         2.722275         0.479006
 H        -0.688977         2.705353         3.463878
 H        -0.939145         0.974208         3.971212
 H         1.146984         1.946085         2.030440
 H         0.931957         0.496568         2.913832
