19
Iteration:  3603charge 0 multiplicity 1
 O         0.547219        -0.109729         0.055124
 C        -0.339946         0.484194         0.995273
 C        -1.651758        -0.065674         1.496752
 C        -1.916480         1.453731         2.030425
 C        -3.056456         2.158025         1.233104
 O        -2.215291         1.988596         0.000932
 C        -1.001179         1.880704         0.749000
 C        -0.803316         1.531301         3.097806
 C         0.373236         1.039609         2.298665
 H         0.785768        -0.943961         0.429811
 H        -2.399891        -0.505549         0.788707
 H        -1.465421        -0.832710         2.301037
 H        -4.022295         1.446539         1.375831
 H        -3.352910         3.199406         1.395423
 H        -0.264788         2.742081         0.720301
 H        -0.814101         2.479175         3.581324
 H        -1.133222         0.797201         3.898005
 H         1.006546         1.887033         1.998009
 H         0.936842         0.285283         2.708462
