19
Iteration:  1925charge 0 multiplicity 1
 O         0.573706        -0.239678         0.107269
 C        -0.249569         0.598483         0.960737
 C        -1.538007        -0.029219         1.509627
 C        -1.835735         1.472942         1.947777
 C        -3.034876         2.040330         1.339773
 O        -2.411487         1.882231         0.018658
 C        -1.002734         1.841615         0.644537
 C        -0.862953         1.595146         3.131541
 C         0.385633         1.193033         2.332326
 H         0.013852        -0.909431        -0.413287
 H        -2.109830        -0.357444         0.668615
 H        -1.661101        -0.625706         2.404456
 H        -3.955255         1.621221         1.253166
 H        -3.073200         3.080385         1.411888
 H        -0.586077         2.790975         0.468997
 H        -0.871099         2.581356         3.643782
 H        -1.113542         0.889748         3.984758
 H         1.083346         2.077524         2.278818
 H         1.173015         0.411017         2.800199
