19
Iteration:  3736
 O         0.455372        -0.097469         0.014535
 C        -0.301225         0.514758         1.014549
 C        -1.619425        -0.109832         1.506114
 C        -1.820003         1.407747         1.953890
 C        -2.920978         2.143358         1.243484
 O        -2.241068         2.013292        -0.025482
 C        -0.989746         1.846708         0.693845
 C        -0.935359         1.588027         3.164518
 C         0.357039         0.982283         2.433339
 H         0.264562        -1.014097        -0.137105
 H        -2.316721        -0.361106         0.684226
 H        -1.396248        -0.924940         2.260147
 H        -3.981055         1.595562         1.310653
 H        -3.013365         3.165323         1.655162
 H        -0.324079         2.896630         0.565500
 H        -0.746078         2.692449         3.271231
 H        -1.221911         1.123108         4.116891
 H         1.036142         1.851757         2.335285
 H         0.861897         0.240149         2.903029
