19
Iteration:  2338
 O         0.629731        -0.244335         0.100280
 C        -0.325555         0.531263         0.949802
 C        -1.587467        -0.013329         1.478671
 C        -1.801232         1.406491         1.970072
 C        -3.098950         1.905803         1.311527
 O        -2.370103         2.055662         0.023321
 C        -1.042692         1.878598         0.718891
 C        -0.749118         1.788995         3.091782
 C         0.339755         1.009861         2.408195
 H         0.071995        -0.585605        -0.640446
 H        -2.259975        -0.349327         0.607670
 H        -1.555835        -0.824147         2.293807
 H        -3.860791         1.151908         1.148077
 H        -3.413486         2.944173         1.660578
 H        -0.505062         2.720665         0.396503
 H        -0.493452         2.866220         3.170677
 H        -1.076568         1.591237         4.164898
 H         1.307281         1.701859         2.189317
 H         0.653340         0.102238         2.801026
