19
Iteration:  1553
 O         0.538987        -0.188937         0.132909
 C        -0.331570         0.545921         1.056930
 C        -1.648074         0.016112         1.687970
 C        -1.811845         1.462951         2.005726
 C        -3.056680         2.037613         1.213300
 O        -2.292670         1.880734        -0.126379
 C        -1.103929         1.912571         0.689838
 C        -0.764117         1.575196         3.116063
 C         0.431288         1.093207         2.318368
 H         0.215042        -0.091178        -0.764173
 H        -2.277288        -0.483213         0.987509
 H        -1.444609        -0.697227         2.452204
 H        -3.939622         1.292868         1.044377
 H        -3.231797         3.040301         1.377779
 H        -0.402422         2.814498         0.597423
 H        -0.619582         2.496364         3.671783
 H        -1.110322         0.859230         3.909078
 H         1.049292         2.057034         1.866715
 H         1.074431         0.308659         2.610038
