19
Iteration:  3105
 O         0.573080        -0.121905         0.059552
 C        -0.323047         0.464345         1.016535
 C        -1.633921        -0.150502         1.562879
 C        -1.776813         1.460056         1.974780
 C        -3.013406         2.048080         1.287498
 O        -2.315014         2.003542        -0.039953
 C        -1.038520         1.829799         0.704554
 C        -0.859031         1.700641         3.114234
 C         0.393937         1.065037         2.359729
 H        -0.141046        -0.457743        -0.586534
 H        -2.278867        -0.527458         0.777251
 H        -1.480283        -0.892566         2.324391
 H        -3.958971         1.383540         1.215235
 H        -3.274281         3.089778         1.621903
 H        -0.338609         2.762695         0.604137
 H        -0.672773         2.783923         3.318782
 H        -1.145843         1.192335         4.017558
 H         1.208966         1.760786         2.087665
 H         0.801688         0.183031         2.974994
