19
Iteration:  4387
 O         0.564901        -0.137294         0.054655
 C        -0.262546         0.544940         0.965629
 C        -1.649070        -0.040727         1.434027
 C        -1.862511         1.495493         2.006173
 C        -3.058214         2.133136         1.198131
 O        -2.279486         2.126195        -0.065390
 C        -1.026696         1.911767         0.735349
 C        -0.814605         1.514621         3.162244
 C         0.356142         0.788817         2.457637
 H         0.799990        -1.044900         0.425627
 H        -2.296693        -0.286373         0.583520
 H        -1.770435        -0.869625         2.185975
 H        -4.031538         1.716942         1.103301
 H        -3.290100         3.157213         1.515917
 H        -0.483733         2.832120         0.621953
 H        -0.520429         2.547907         3.534002
 H        -1.249869         1.090494         4.099864
 H         1.298024         1.406483         2.453701
 H         0.625422        -0.147492         3.040155
