19
Iteration:  4173charge 0 multiplicity 1
 O         0.636078        -0.146107         0.155776
 C        -0.279195         0.521921         0.937975
 C        -1.634572        -0.051382         1.410204
 C        -1.893190         1.413006         1.935170
 C        -2.990142         2.251811         1.267981
 O        -2.269037         2.074827         0.031421
 C        -0.997792         1.881524         0.677683
 C        -0.898181         1.562502         3.136181
 C         0.308360         0.796029         2.452570
 H         0.232887        -0.424274        -0.696072
 H        -2.402197        -0.264649         0.647542
 H        -1.549861        -0.901841         2.133890
 H        -3.868470         1.754139         1.169799
 H        -3.089068         3.256796         1.561420
 H        -0.387981         2.734189         0.503226
 H        -0.659511         2.660675         3.389684
 H        -1.288785         1.037347         4.028706
 H         1.256950         1.443944         2.474058
 H         0.341869        -0.264345         2.895161
