19
Iteration:  2278charge 0 multiplicity 1
 O         0.555771        -0.130399         0.039106
 C        -0.261596         0.560167         1.018949
 C        -1.595486        -0.067961         1.551394
 C        -1.798142         1.483921         2.006589
 C        -2.977002         2.176080         1.231891
 O        -2.346194         1.740586         0.001661
 C        -1.098831         1.814386         0.714724
 C        -0.861581         1.620496         3.162975
 C         0.385066         1.109756         2.337333
 H         0.052041        -0.086243        -0.847863
 H        -2.271267        -0.306791         0.773672
 H        -1.538501        -0.831476         2.289395
 H        -3.979076         1.780149         1.526136
 H        -2.898562         3.317079         1.510376
 H        -0.456093         2.791576         0.460579
 H        -0.729018         2.620787         3.593824
 H        -1.307023         0.955869         3.876493
 H         1.073065         1.778744         2.082795
 H         1.028971         0.238214         2.710547
