19
Iteration:  4319charge 0 multiplicity 1
 O         0.558399        -0.155603         0.055676
 C        -0.316917         0.550448         0.957461
 C        -1.598090        -0.023482         1.453730
 C        -1.839057         1.495392         1.967984
 C        -2.992654         2.244057         1.235965
 O        -2.269260         2.024731        -0.007542
 C        -0.994991         1.935805         0.746833
 C        -0.963388         1.490003         3.132644
 C         0.328162         0.795950         2.394470
 H         1.122957        -0.726700         0.576643
 H        -2.315482        -0.307762         0.631782
 H        -1.531717        -0.771224         2.280993
 H        -3.940750         1.878747         1.235349
 H        -3.050652         3.266947         1.556690
 H        -0.451188         2.756649         0.530187
 H        -0.641277         2.416603         3.592905
 H        -1.363249         0.870662         3.992215
 H         1.182506         1.483097         2.324473
 H         0.718616        -0.232821         2.743662
