19
Iteration:  4952charge 0 multiplicity 1
 O         0.720450        -0.207500         0.149227
 C        -0.274241         0.460808         1.014963
 C        -1.677944        -0.035178         1.456564
 C        -1.888082         1.445199         1.962222
 C        -2.967001         2.277597         1.235975
 O        -2.325560         2.138827        -0.026660
 C        -1.063402         1.833112         0.700183
 C        -0.899594         1.473676         3.149531
 C         0.318477         0.881163         2.359878
 H         0.210406        -0.160840        -0.718222
 H        -2.271041        -0.519197         0.612709
 H        -1.610630        -0.811790         2.227158
 H        -4.058303         1.945819         1.176148
 H        -2.824683         3.212197         1.800383
 H        -0.359840         2.789036         0.562940
 H        -0.722328         2.552041         3.456138
 H        -1.333335         0.937547         4.096952
 H         1.192165         1.523390         2.329594
 H         0.720681        -0.012474         2.856047
