19
Iteration:   296charge 0 multiplicity 1
 O         0.529828        -0.076289         0.112156
 C        -0.302338         0.548198         1.049286
 C        -1.609100        -0.115002         1.664188
 C        -1.845983         1.479807         1.996570
 C        -3.137524         1.955273         1.223018
 O        -2.337528         1.944214        -0.032029
 C        -1.102359         1.805763         0.659822
 C        -0.752574         1.726110         3.070640
 C         0.471873         1.013186         2.204281
 H         1.440575        -0.098320         0.386850
 H        -2.299639        -0.644769         0.986472
 H        -1.639865        -0.783527         2.527279
 H        -3.944844         1.203964         1.240705
 H        -3.615817         2.947728         1.361489
 H        -0.494995         2.835855         0.554379
 H        -0.602787         2.817755         3.301357
 H        -0.931831         1.263989         4.050127
 H         1.142602         1.817638         2.004039
 H         1.034665         0.184751         2.797984
