19
Iteration:  4652charge 0 multiplicity 1
 O         0.606293        -0.103923         0.121454
 C        -0.294047         0.449907         1.023863
 C        -1.653063        -0.088633         1.390197
 C        -1.893298         1.416882         1.893754
 C        -2.948156         2.242843         1.321056
 O        -2.300354         2.210842        -0.010664
 C        -0.984817         1.777047         0.683523
 C        -0.941380         1.510033         3.104870
 C         0.376580         0.895426         2.449055
 H         0.283424        -1.036355        -0.085748
 H        -2.179004        -0.392394         0.425770
 H        -1.831817        -0.998767         2.073753
 H        -3.939455         1.772742         1.299141
 H        -3.000245         3.216983         1.816548
 H        -0.348441         2.604921         0.622915
 H        -0.670198         2.607119         3.196173
 H        -1.313427         0.910240         3.976405
 H         1.258863         1.626160         2.393717
 H         0.741601        -0.058877         3.023005
