19
Iteration:  4582
 O         0.441130        -0.013135        -0.017604
 C        -0.313593         0.447503         1.032169
 C        -1.735611        -0.062780         1.441349
 C        -1.847117         1.428917         1.990825
 C        -2.901689         2.168453         1.254286
 O        -2.208199         2.086561        -0.113699
 C        -0.966275         1.805021         0.738845
 C        -0.888044         1.509908         3.215935
 C         0.371114         0.904881         2.473182
 H         0.934620        -0.824992         0.331537
 H        -2.425003        -0.274486         0.625548
 H        -1.812519        -0.881117         2.228743
 H        -3.866661         1.728167         1.228196
 H        -2.941861         3.223206         1.434519
 H        -0.372308         2.760856         0.633291
 H        -0.701060         2.532419         3.486386
 H        -1.290356         0.923775         4.021574
 H         1.149068         1.659541         2.444805
 H         0.807442        -0.044830         2.810134
