19
Iteration:  1932charge 0 multiplicity 1
 O         0.550885        -0.263805         0.119903
 C        -0.253180         0.597684         0.948894
 C        -1.514871        -0.006119         1.524779
 C        -1.793121         1.479926         1.923751
 C        -3.044943         2.039681         1.292978
 O        -2.417069         1.908743         0.008615
 C        -1.053509         1.872259         0.636532
 C        -0.862117         1.574103         3.168958
 C         0.430322         1.198102         2.389756
 H         0.037224        -0.867862        -0.423564
 H        -2.157653        -0.440488         0.673699
 H        -1.543450        -0.877708         2.300495
 H        -4.026507         1.303443         1.117784
 H        -3.360527         3.156945         1.461955
 H        -0.547425         2.871099         0.526249
 H        -0.660736         2.558718         3.599691
 H        -0.856948         0.984986         4.054627
 H         1.011854         2.014672         2.092323
 H         0.897179         0.301908         2.826683
