19
Iteration:  3471
 O         0.478550        -0.343235         0.163631
 C        -0.287537         0.571150         0.959355
 C        -1.530657        -0.044499         1.361338
 C        -1.806512         1.455636         2.016568
 C        -3.031243         2.086664         1.275168
 O        -2.361943         1.971299        -0.003722
 C        -1.052861         1.944616         0.677410
 C        -0.853969         1.620274         3.185277
 C         0.400130         1.069572         2.350456
 H         1.097656         0.217105        -0.282124
 H        -2.143325        -0.267956         0.485630
 H        -1.447617        -0.897845         2.092121
 H        -4.049760         1.559583         1.250837
 H        -3.199188         3.029345         1.663260
 H        -0.463168         2.759884         0.639524
 H        -0.853838         2.602938         3.571720
 H        -1.117098         0.839990         3.963199
 H         1.314412         1.783496         2.080914
 H         0.776886         0.269345         2.982425
