19
Iteration:  2169charge 0 multiplicity 1
 O         0.512636        -0.147132         0.115220
 C        -0.221453         0.530445         0.969566
 C        -1.568302        -0.012343         1.594035
 C        -1.845823         1.443907         1.948583
 C        -3.033562         2.095907         1.262526
 O        -2.329653         1.822475        -0.013180
 C        -1.076244         1.889840         0.666506
 C        -0.838892         1.611674         3.165500
 C         0.445811         1.076820         2.303808
 H         0.105795        -0.235213        -0.717367
 H        -2.188020        -0.476105         0.849613
 H        -1.470545        -0.713693         2.373608
 H        -3.962643         1.631548         1.429756
 H        -3.242354         3.168798         1.339640
 H        -0.648519         2.817190         0.543559
 H        -0.672969         2.643686         3.490378
 H        -1.271779         1.027421         3.953084
 H         1.082108         1.928322         2.193175
 H         0.842114         0.153773         2.898334
