19
Iteration:  1843
 O         0.534861        -0.133887         0.103356
 C        -0.274435         0.580682         0.997630
 C        -1.550367        -0.001609         1.505241
 C        -1.801504         1.479798         2.044567
 C        -3.062342         1.941113         1.304140
 O        -2.373382         1.872941        -0.005685
 C        -0.971621         1.859841         0.568074
 C        -0.821467         1.752155         3.116367
 C         0.397662         0.968112         2.409098
 H         0.048270        -0.174865        -0.690676
 H        -2.313641        -0.240718         0.701054
 H        -1.462373        -0.835883         2.296452
 H        -4.078192         1.368002         1.158094
 H        -3.435956         2.868306         1.544076
 H        -0.465463         2.855022         0.412914
 H        -0.814360         2.855694         3.194014
 H        -0.993179         1.295529         4.083500
 H         1.299469         1.561919         2.266831
 H         0.481799         0.050617         3.044670
