19
Iteration:  3644charge 0 multiplicity 1
 O         0.564931        -0.217314         0.073270
 C        -0.240096         0.495520         0.965274
 C        -1.631423        -0.091309         1.448568
 C        -1.831808         1.449748         1.899941
 C        -3.010439         2.174387         1.411151
 O        -2.371881         2.039168         0.014495
 C        -1.010616         1.826524         0.660086
 C        -0.940938         1.607848         3.053832
 C         0.342917         0.968677         2.390201
 H         1.503156        -0.004576         0.386774
 H        -2.226445        -0.473126         0.636821
 H        -1.553196        -0.793586         2.260432
 H        -3.946233         1.735178         1.330978
 H        -3.073233         3.284397         1.688003
 H        -0.347684         2.834404         0.506731
 H        -0.627703         2.578311         3.389818
 H        -1.014113         0.982962         3.978970
 H         1.118493         1.658810         2.175278
 H         0.772159         0.258408         3.197388
