19
Iteration:  3628
 O         0.544084        -0.172725         0.102115
 C        -0.295186         0.508229         0.997365
 C        -1.622198        -0.099386         1.526586
 C        -1.837283         1.336539         1.952589
 C        -2.973704         2.184453         1.240148
 O        -2.343608         2.094178        -0.046133
 C        -1.117469         1.829973         0.705160
 C        -0.839554         1.536993         3.135573
 C         0.420199         1.052766         2.316003
 H         1.338209        -0.426237         0.628532
 H        -2.329157        -0.335942         0.687932
 H        -1.617518        -0.976911         2.224714
 H        -4.095016         1.851714         1.354722
 H        -2.936535         3.160422         1.699177
 H        -0.547673         2.646130         0.759458
 H        -0.928640         2.634280         3.467456
 H        -1.163225         0.965895         3.994974
 H         1.238361         1.894870         2.127141
 H         0.846843         0.041058         2.582864
