19
Iteration:  2730
 O         0.600507        -0.107458         0.041838
 C        -0.274357         0.490092         1.049041
 C        -1.614970        -0.010532         1.562261
 C        -1.883451         1.463409         1.961839
 C        -3.110099         1.960971         1.240452
 O        -2.281496         2.012847        -0.031894
 C        -1.017868         1.887688         0.792135
 C        -0.860128         1.768010         3.080331
 C         0.420331         0.848823         2.332812
 H         0.052010        -0.635642        -0.578494
 H        -2.363154        -0.461594         0.942757
 H        -1.476512        -0.709926         2.422438
 H        -4.207906         1.430444         1.360877
 H        -3.417954         2.953005         1.389028
 H        -0.317597         2.776864         0.678254
 H        -0.435630         2.737945         3.328986
 H        -1.154813         1.366407         4.067127
 H         1.166128         1.623662         2.066052
 H         0.977352        -0.072698         2.847585
