19
Iteration:  4276
 O         0.571641         0.011224         0.003366
 C        -0.315653         0.426276         1.056617
 C        -1.689508        -0.072744         1.451453
 C        -1.868478         1.527659         1.981527
 C        -3.023576         2.225110         1.215890
 O        -2.215679         2.071449         0.019913
 C        -1.009466         1.810339         0.711116
 C        -0.851312         1.581675         3.137802
 C         0.302197         0.678797         2.409739
 H         1.115713        -0.697747         0.299757
 H        -2.383014        -0.279389         0.592580
 H        -1.642639        -0.933981         2.156127
 H        -3.904253         1.733844         1.123374
 H        -3.269409         3.278719         1.296573
 H        -0.276320         2.715791         0.683609
 H        -0.592692         2.616611         3.230128
 H        -1.228552         1.290961         4.167445
 H         1.139300         1.287785         2.334604
 H         0.650621        -0.061460         3.080863
