19
Iteration:   244charge 0 multiplicity 1
 O         0.488869        -0.066195         0.079476
 C        -0.269803         0.644976         0.985736
 C        -1.426837        -0.040536         1.574086
 C        -1.851380         1.395029         1.972436
 C        -3.012572         2.077233         1.299040
 O        -2.421228         1.740430         0.002095
 C        -1.034943         1.825842         0.601804
 C        -0.858929         1.666818         3.053030
 C         0.399290         1.118787         2.358899
 H         0.187068        -0.977565         0.314437
 H        -1.977223        -0.620253         0.829318
 H        -1.174816        -0.810280         2.399037
 H        -4.133663         1.806062         1.303549
 H        -3.052938         3.170074         1.628339
 H        -0.540774         2.831479         0.504677
 H        -0.815794         2.745150         3.198265
 H        -1.120124         1.089340         4.059543
 H         1.193436         1.857430         2.289463
 H         0.846359         0.253455         2.932491
