19
Iteration:  4169
 O         0.657409        -0.160466         0.120007
 C        -0.292344         0.511975         0.969534
 C        -1.641754        -0.058286         1.423472
 C        -1.870360         1.390019         1.932135
 C        -2.973549         2.254766         1.283536
 O        -2.274105         2.076776         0.003663
 C        -0.996225         1.874436         0.704674
 C        -0.907590         1.604737         3.144775
 C         0.304488         0.783712         2.436662
 H         0.221237        -0.235643        -0.743426
 H        -2.326666        -0.285135         0.586252
 H        -1.689572        -0.876924         2.121530
 H        -3.989134         1.655062         1.171327
 H        -3.033602         3.290333         1.713756
 H        -0.367478         2.778222         0.611767
 H        -0.764149         2.659040         3.328754
 H        -1.385696         1.159189         4.020111
 H         1.253471         1.419373         2.472292
 H         0.321398        -0.167114         2.915598
