19
Iteration:  4025charge 0 multiplicity 1
 O         0.601325         0.045604         0.054618
 C        -0.351055         0.433442         0.965242
 C        -1.675356        -0.167117         1.504857
 C        -1.822532         1.397961         1.949003
 C        -2.960185         2.250362         1.243509
 O        -2.233737         2.132293        -0.041288
 C        -1.028823         1.799192         0.708263
 C        -0.885787         1.563614         3.143277
 C         0.246653         0.767615         2.430008
 H         1.294616        -0.632379         0.342983
 H        -2.382405        -0.500847         0.759279
 H        -1.706227        -0.858437         2.352513
 H        -4.044836         1.808728         1.105416
 H        -2.999159         3.262859         1.466749
 H        -0.319802         2.545363         0.659545
 H        -0.588878         2.562287         3.292844
 H        -1.364572         1.262966         4.113954
 H         1.189202         1.655995         2.284537
 H         0.599986        -0.093451         2.983303
