19
Iteration:  2146
 O         0.657015        -0.035589         0.119704
 C        -0.330007         0.564647         0.998263
 C        -1.704641        -0.015374         1.597643
 C        -1.854184         1.573673         2.043441
 C        -3.037539         2.126739         1.219999
 O        -2.406825         1.707242        -0.044592
 C        -1.045468         1.860711         0.658316
 C        -0.730005         1.602874         3.178315
 C         0.424427         0.984302         2.317621
 H         0.303910        -0.284484        -0.813542
 H        -2.309267        -0.483293         0.851866
 H        -1.541589        -0.731215         2.343161
 H        -4.069974         1.806944         1.343707
 H        -3.151930         3.236824         1.244823
 H        -0.445219         2.615817         0.257673
 H        -0.346678         2.506763         3.669265
 H        -1.168217         0.915485         3.884135
 H         1.100865         1.742028         2.073519
 H         0.790255        -0.051270         2.698399
