19
Iteration:   963charge 0 multiplicity 1
 O         0.459559        -0.125738        -0.029556
 C        -0.216628         0.612663         0.935825
 C        -1.472458        -0.088974         1.599023
 C        -1.845737         1.428351         2.014054
 C        -3.075811         2.104182         1.236191
 O        -2.414031         1.710272         0.038860
 C        -1.051561         1.808825         0.678684
 C        -0.839552         1.770414         3.136211
 C         0.456562         1.133133         2.346042
 H         0.696566        -1.061794         0.304593
 H        -2.155702        -0.483609         0.826028
 H        -1.287997        -0.833499         2.496488
 H        -4.117783         1.700066         1.280164
 H        -3.181349         3.245025         1.351725
 H        -0.394170         2.694165         0.505732
 H        -0.854101         2.839617         3.287041
 H        -0.988715         1.339320         4.190249
 H         1.018754         2.032686         2.175401
 H         0.908018         0.338185         2.985310
