19
Iteration:  1389charge 0 multiplicity 1
 O         0.515341        -0.134187         0.083333
 C        -0.238576         0.496649         1.011223
 C        -1.620170        -0.099764         1.574516
 C        -1.858681         1.397007         2.007999
 C        -3.024292         2.022700         1.276909
 O        -2.398973         1.960307        -0.028872
 C        -1.041804         1.789085         0.677228
 C        -0.802540         1.772834         3.065061
 C         0.377618         1.006710         2.334629
 H         1.477292         0.188978         0.187201
 H        -2.332611        -0.501349         0.912360
 H        -1.488365        -0.794196         2.380020
 H        -3.914978         1.369103         1.028533
 H        -3.114528         3.099109         1.526145
 H        -0.475119         2.694192         0.542405
 H        -0.646218         2.811175         2.991847
 H        -0.844004         1.608831         4.163733
 H         1.102948         1.847086         2.055121
 H         0.700049         0.220732         2.880288
