19
Iteration:  1230
 O         0.529545        -0.237478         0.170545
 C        -0.250546         0.595428         0.993780
 C        -1.449142        -0.076944         1.459319
 C        -1.800355         1.449017         1.935551
 C        -3.061273         2.070075         1.329891
 O        -2.457567         1.819907         0.049838
 C        -1.096503         1.831918         0.609567
 C        -0.830381         1.759633         3.077752
 C         0.371297         1.069896         2.318138
 H         1.443166         0.195895         0.046374
 H        -2.241035        -0.204323         0.744315
 H        -1.483595        -0.933326         2.207077
 H        -4.044021         1.666113         1.604713
 H        -3.003418         3.176312         1.377024
 H        -0.681111         2.858664         0.413753
 H        -0.811536         2.832190         3.410701
 H        -1.110435         1.259237         3.965728
 H         1.181911         1.687382         2.091201
 H         0.828353         0.134439         2.837083
