19
Iteration:   381
 O         0.639040        -0.063733         0.169142
 C        -0.335791         0.553196         0.956344
 C        -1.560517        -0.014469         1.717572
 C        -1.864776         1.477605         2.012104
 C        -3.110415         2.041746         1.164728
 O        -2.318715         1.857771        -0.003960
 C        -1.084189         1.840926         0.711470
 C        -0.813100         1.547389         3.091589
 C         0.413284         1.058360         2.184038
 H         0.142261        -0.595733        -0.507256
 H        -2.442257        -0.331312         1.085313
 H        -1.241836        -0.596350         2.586173
 H        -4.093565         1.567778         1.146097
 H        -3.304586         3.133074         1.344596
 H        -0.495190         2.653515         0.532562
 H        -0.730764         2.637655         3.368740
 H        -1.058311         0.976602         3.932268
 H         1.122191         1.919642         2.105019
 H         1.081441         0.263709         2.624054
