19
Iteration:  4235charge 0 multiplicity 1
 O         0.446030        -0.163654         0.071063
 C        -0.276900         0.499287         0.990830
 C        -1.582575        -0.111801         1.405214
 C        -1.856839         1.359718         1.946307
 C        -2.948735         2.207010         1.252478
 O        -2.184272         2.167624        -0.009864
 C        -0.931506         1.870474         0.729640
 C        -1.000312         1.522408         3.201263
 C         0.309619         0.954143         2.395372
 H         0.391975        -1.146474         0.150694
 H        -2.246037        -0.411689         0.571805
 H        -1.579075        -0.926243         2.106500
 H        -4.019589         1.607384         1.100107
 H        -3.135648         3.288664         1.688116
 H        -0.258307         2.863473         0.673642
 H        -0.712145         2.526611         3.549698
 H        -1.193172         0.902346         4.080813
 H         0.925586         1.880606         2.188870
 H         0.922092         0.136653         2.765774
