19
Iteration:  4601charge 0 multiplicity 1
 O         0.467666        -0.189828         0.102917
 C        -0.299036         0.566502         1.012980
 C        -1.643272         0.006123         1.418651
 C        -1.865035         1.448462         1.967727
 C        -3.079366         2.140049         1.149234
 O        -2.186015         2.102776         0.002221
 C        -0.996473         1.968231         0.789291
 C        -0.821025         1.454261         3.162148
 C         0.389396         0.866353         2.353980
 H         0.632986        -1.033383         0.607712
 H        -2.233011        -0.164165         0.562448
 H        -1.713536        -0.809241         2.041335
 H        -4.053264         1.605383         0.972674
 H        -3.296922         3.190601         1.463739
 H        -0.480284         2.989936         0.942212
 H        -0.730250         2.427010         3.553384
 H        -0.986060         0.682175         3.890015
 H         1.207757         1.495896         2.126521
 H         0.760923         0.009537         2.818000
