19
Iteration:  3215charge 0 multiplicity 1
 O         0.581203        -0.292151         0.136262
 C        -0.214628         0.491886         1.029585
 C        -1.523985        -0.152434         1.504105
 C        -1.840027         1.355748         1.998696
 C        -3.137036         2.098771         1.303352
 O        -2.389889         2.108172        -0.014059
 C        -1.080592         1.877469         0.696939
 C        -0.832176         1.718485         3.053158
 C         0.380276         1.059889         2.330975
 H         0.545262        -0.173759        -0.784838
 H        -2.006533        -0.431327         0.584412
 H        -1.391469        -1.030053         2.143718
 H        -4.165481         1.700078         1.400191
 H        -3.154313         3.111145         1.480405
 H        -0.422294         2.641466         0.680626
 H        -0.764242         2.867388         3.105659
 H        -1.057918         1.292029         4.036076
 H         1.307036         1.751677         2.285048
 H         0.858113         0.205616         3.027562
