19
Iteration:  3599
 O         0.543576        -0.097693         0.029618
 C        -0.314777         0.500559         0.995015
 C        -1.686283        -0.050441         1.516633
 C        -1.840548         1.483393         1.986569
 C        -3.047092         2.117047         1.232127
 O        -2.219951         1.974657         0.011171
 C        -1.027652         1.855749         0.766963
 C        -0.861042         1.537353         3.105557
 C         0.379595         1.058754         2.323511
 H         0.681005        -1.039360         0.391751
 H        -2.401512        -0.401764         0.813113
 H        -1.524854        -0.825842         2.247549
 H        -3.828393         1.449100         1.345774
 H        -3.363621         3.193289         1.474343
 H        -0.221825         2.770600         0.653706
 H        -0.816423         2.519435         3.615958
 H        -1.135473         0.800048         3.882304
 H         1.116885         1.763221         2.026282
 H         0.925159         0.111389         2.686393
