19
Iteration:  1090charge 0 multiplicity 1
 O         0.605094        -0.146589         0.143677
 C        -0.309875         0.510437         0.979078
 C        -1.537668        -0.090814         1.651633
 C        -1.835577         1.450191         1.962710
 C        -3.103206         2.106559         1.273634
 O        -2.406092         1.817278        -0.008745
 C        -1.100922         1.783357         0.645739
 C        -0.770110         1.693852         3.076820
 C         0.395016         1.127658         2.314264
 H         0.636572         0.267625        -0.724078
 H        -2.309213        -0.472007         1.032473
 H        -1.506927        -0.627493         2.599003
 H        -4.032020         1.470698         1.215499
 H        -3.149306         3.177104         1.486017
 H        -0.490240         2.631303         0.342763
 H        -0.560019         2.712675         3.405186
 H        -1.007373         1.124533         3.987998
 H         1.078326         1.970653         1.831470
 H         1.135244         0.420022         2.734561
