19
Iteration:  1298
 O         0.516364        -0.139319         0.078950
 C        -0.247446         0.565691         0.998304
 C        -1.636316        -0.072262         1.670458
 C        -1.813636         1.395670         2.026146
 C        -3.087144         1.992842         1.214233
 O        -2.258860         1.855955        -0.044763
 C        -1.102050         1.862241         0.729654
 C        -0.830172         1.739602         3.123397
 C         0.453606         1.094151         2.261776
 H        -0.013548        -0.355151        -0.734999
 H        -2.411196        -0.510721         0.991437
 H        -1.438079        -0.825253         2.439127
 H        -4.036854         1.360568         0.989702
 H        -3.155867         3.045014         1.517792
 H        -0.559728         2.800636         0.507470
 H        -0.569849         2.766531         3.342247
 H        -1.044508         1.326318         4.108796
 H         0.978694         2.024964         2.136284
 H         1.127066         0.352257         2.781201
