19
Iteration:  2579charge 0 multiplicity 1
 O         0.528123        -0.100642         0.178969
 C        -0.311888         0.587945         0.953630
 C        -1.601726        -0.041872         1.578229
 C        -1.834139         1.447612         1.949170
 C        -3.085290         1.917174         1.228036
 O        -2.315949         2.029357        -0.015011
 C        -1.021364         1.919049         0.716504
 C        -0.726869         1.737185         3.037470
 C         0.390123         0.846018         2.366362
 H         0.004780        -0.572306        -0.559828
 H        -2.418564        -0.345852         0.884217
 H        -1.322410        -0.790433         2.416640
 H        -3.777183         1.153256         1.163001
 H        -3.583967         2.937366         1.664288
 H        -0.566768         2.961013         0.802097
 H        -0.615778         2.828833         2.921500
 H        -0.916260         1.265653         4.037342
 H         1.408860         1.310962         2.229751
 H         0.524954        -0.165703         2.778603
