19
Iteration:  3683
 O         0.517578        -0.160272         0.163472
 C        -0.297649         0.539150         1.062836
 C        -1.659218        -0.008046         1.466073
 C        -1.834402         1.455383         1.930427
 C        -3.093738         2.098934         1.229306
 O        -2.279279         1.973671        -0.080554
 C        -1.060734         1.945803         0.725119
 C        -0.691441         1.582533         3.142717
 C         0.350410         0.878446         2.367440
 H         0.813771         0.213644        -0.638419
 H        -2.360550        -0.342588         0.705912
 H        -1.538961        -0.739151         2.315160
 H        -4.042535         1.433451         1.195678
 H        -3.229486         3.046496         1.713194
 H        -0.530718         2.874862         0.653079
 H        -0.607796         2.666223         3.443890
 H        -0.995553         1.008026         3.997578
 H         1.371460         1.366774         2.286596
 H         0.582754        -0.056939         2.825047
