19
Iteration:  3073charge 0 multiplicity 1
 O         0.681023        -0.228055         0.270272
 C        -0.374507         0.502785         0.955314
 C        -1.653339        -0.078417         1.501678
 C        -1.804602         1.496017         1.988116
 C        -3.124946         2.037142         1.270858
 O        -2.397878         2.021887        -0.002230
 C        -1.101933         1.932991         0.712036
 C        -0.725125         1.658932         3.079144
 C         0.418880         0.952631         2.265305
 H         0.609642         0.084295        -0.641099
 H        -2.277145        -0.450097         0.711283
 H        -1.334354        -0.900462         2.146327
 H        -4.066059         1.283390         1.169530
 H        -3.517160         3.087557         1.537672
 H        -0.536541         3.021899         0.500476
 H        -0.404880         2.703732         3.180671
 H        -0.952663         1.307798         4.042448
 H         1.337025         1.521965         2.110487
 H         0.831627         0.003603         2.606285
