19
Iteration:  4266charge 0 multiplicity 1
 O         0.551116        -0.034535        -0.005920
 C        -0.272029         0.476305         0.976197
 C        -1.691246        -0.119037         1.496628
 C        -1.881755         1.398774         1.968353
 C        -3.032485         2.249234         1.213520
 O        -2.205551         2.115566        -0.007640
 C        -0.958938         1.810928         0.771064
 C        -0.898440         1.591094         3.094851
 C         0.302049         0.789404         2.451029
 H         0.950426        -0.874500         0.234457
 H        -2.386542        -0.495038         0.708045
 H        -1.669876        -0.755418         2.383869
 H        -3.997914         1.751116         1.077930
 H        -3.137836         3.308632         1.592115
 H        -0.284959         2.823198         0.829170
 H        -0.517945         2.590012         3.184228
 H        -1.040144         1.143067         4.101529
 H         1.131934         1.422448         2.489840
 H         0.453154        -0.169727         2.859293
