19
Iteration:  2082
 O         0.574909        -0.279244         0.179753
 C        -0.259797         0.521974         0.981929
 C        -1.500209        -0.094874         1.550531
 C        -1.891045         1.401258         1.962468
 C        -3.071532         1.951578         1.288929
 O        -2.364184         2.113574        -0.002388
 C        -1.089632         1.851076         0.722325
 C        -0.815779         1.740516         3.044872
 C         0.398822         1.088933         2.272526
 H         0.049629        -0.505451        -0.606956
 H        -2.104430        -0.329723         0.668078
 H        -1.375729        -0.917301         2.224418
 H        -3.896833         1.294844         1.305528
 H        -3.331788         2.907565         1.710421
 H        -0.517040         2.773361         0.615042
 H        -0.598685         2.802172         3.185639
 H        -1.157976         1.208558         3.989448
 H         1.199243         2.015745         2.142289
 H         0.947301         0.267031         2.960261
