19
Iteration:  2292charge 0 multiplicity 1
 O         0.509991        -0.069318         0.071312
 C        -0.321693         0.530555         0.984920
 C        -1.582611        -0.078959         1.638189
 C        -1.868573         1.430421         2.016471
 C        -3.041269         2.140822         1.265744
 O        -2.319547         1.848260        -0.109282
 C        -1.043320         1.789994         0.680964
 C        -0.820271         1.605514         3.204305
 C         0.457984         1.046616         2.300469
 H         0.046378        -0.037105        -0.733095
 H        -2.334875        -0.532356         0.965109
 H        -1.380924        -0.791906         2.476452
 H        -3.980925         1.735350         1.083853
 H        -2.987920         3.251058         1.189881
 H        -0.579990         2.746456         0.635923
 H        -0.707575         2.652375         3.525350
 H        -0.765250         1.071430         4.183994
 H         1.161447         1.900269         2.159490
 H         0.953028         0.346794         2.937962
