19
Iteration:   277charge 0 multiplicity 1
 O         0.535131        -0.097426        -0.060704
 C        -0.330199         0.516329         0.988743
 C        -1.676863         0.061669         1.677162
 C        -1.840614         1.489829         2.016744
 C        -3.098786         1.931661         1.207198
 O        -2.349903         1.826509        -0.015630
 C        -1.007332         1.749652         0.692597
 C        -0.751410         1.663123         3.125106
 C         0.447331         1.177550         2.347909
 H         1.281345        -0.485495         0.352191
 H        -2.329797        -0.184621         0.860978
 H        -1.601941        -0.754595         2.506734
 H        -3.936216         1.149177         1.033182
 H        -3.403889         2.996434         1.493136
 H        -0.414362         2.714799         0.556216
 H        -0.702024         2.668195         3.530489
 H        -1.006742         1.054680         4.108823
 H         1.092755         1.971737         1.944677
 H         0.981295         0.515727         3.071711
