19
Iteration:   287charge 0 multiplicity 1
 O         0.528673        -0.070095         0.039125
 C        -0.264209         0.477964         1.025181
 C        -1.691240        -0.013968         1.675036
 C        -1.867075         1.447277         1.996872
 C        -3.162422         1.919929         1.189498
 O        -2.323185         1.914437        -0.016001
 C        -1.068471         1.811403         0.712742
 C        -0.737742         1.664321         3.092160
 C         0.470315         1.144831         2.287792
 H         1.394189        -0.178295         0.413842
 H        -2.415012        -0.364813         0.947195
 H        -1.608055        -0.621916         2.648540
 H        -4.049756         1.180215         1.261456
 H        -3.557850         2.985812         1.317225
 H        -0.310334         2.562674         0.200977
 H        -0.534746         2.734077         3.181693
 H        -0.798638         1.100475         4.103204
 H         1.253881         1.844864         2.021789
 H         1.015527         0.218479         2.691241
