19
Iteration:  3967charge 0 multiplicity 1
 O         0.498960        -0.138971         0.120773
 C        -0.325129         0.568640         0.953636
 C        -1.629281        -0.009372         1.504767
 C        -1.854780         1.410430         1.970113
 C        -3.014577         2.106614         1.169244
 O        -2.225837         2.142509        -0.074732
 C        -0.956902         1.946265         0.735598
 C        -0.882248         1.405622         3.217187
 C         0.375440         0.945057         2.403770
 H         0.166769        -0.991148        -0.104884
 H        -2.268687        -0.296231         0.622491
 H        -1.559150        -0.822618         2.268349
 H        -3.947619         1.511099         0.993343
 H        -3.248656         3.117725         1.312314
 H        -0.251658         2.781800         0.797685
 H        -0.823198         2.392889         3.711280
 H        -1.245649         0.651386         3.885127
 H         1.399731         1.592307         2.412898
 H         0.696117        -0.067162         2.822268
