19
Iteration:   826charge 0 multiplicity 1
 O         0.547659        -0.033731         0.150725
 C        -0.357678         0.572802         1.039290
 C        -1.614735        -0.071643         1.677512
 C        -1.793897         1.539187         1.996878
 C        -3.067275         1.989635         1.219733
 O        -2.357481         1.810820        -0.060046
 C        -1.070012         1.816820         0.628740
 C        -0.722861         1.642402         3.085864
 C         0.439377         1.087604         2.295755
 H        -0.030720        -0.499640        -0.457114
 H        -2.338142        -0.362058         0.923885
 H        -1.520544        -0.723898         2.472818
 H        -3.955415         1.311565         1.257910
 H        -3.380480         3.052190         1.361977
 H        -0.311527         2.681746         0.540207
 H        -0.543830         2.679885         3.501682
 H        -0.964100         1.008699         3.942850
 H         1.285315         1.724774         1.949873
 H         0.797729         0.165749         2.643856
