19
Iteration:  2321charge 0 multiplicity 1
 O         0.566098        -0.117895         0.110631
 C        -0.293195         0.503262         0.977105
 C        -1.610567        -0.099989         1.637371
 C        -1.827777         1.469198         1.993527
 C        -3.103673         1.955386         1.270422
 O        -2.283895         2.036009         0.002468
 C        -1.044586         1.830088         0.722291
 C        -0.842295         1.755020         3.047971
 C         0.425239         0.965303         2.245648
 H         0.009470        -0.390753        -0.684059
 H        -2.420207        -0.391362         1.024795
 H        -1.417572        -0.818883         2.391123
 H        -3.825933         1.105755         1.078149
 H        -3.540763         2.991014         1.388648
 H        -0.390088         2.849233         0.854323
 H        -0.678066         2.835640         3.190032
 H        -0.908557         1.308540         4.014408
 H         1.296010         1.542521         2.127726
 H         0.761292         0.134594         2.986002
