19
Iteration:  2192charge 0 multiplicity 1
 O         0.552633        -0.214156         0.113822
 C        -0.263933         0.456674         1.004894
 C        -1.514289        -0.103843         1.552910
 C        -1.831671         1.373773         1.941282
 C        -3.028667         1.968225         1.272845
 O        -2.342761         2.079402         0.003777
 C        -1.056066         1.830641         0.700820
 C        -0.811481         1.752813         3.098041
 C         0.358422         1.125602         2.321795
 H        -0.139210        -0.369061        -0.597269
 H        -2.343125        -0.232492         0.888353
 H        -1.464281        -0.947080         2.217486
 H        -3.871755         1.360715         1.268605
 H        -3.396885         2.902850         1.670842
 H        -0.522913         2.688127         0.653948
 H        -0.921027         2.826602         3.130968
 H        -0.953304         1.323692         4.085601
 H         1.104964         1.847884         1.988640
 H         0.763772         0.298970         3.013405
