19
Iteration:  1619
 O         0.688519        -0.090060         0.247367
 C        -0.304014         0.560277         0.988616
 C        -1.593007        -0.103481         1.564049
 C        -1.842254         1.527383         1.981179
 C        -3.084501         2.091204         1.273106
 O        -2.450725         1.919480         0.006840
 C        -1.084156         1.813643         0.607385
 C        -0.712714         1.752998         3.025887
 C         0.346174         0.863370         2.296027
 H         0.367178        -0.625632        -0.550780
 H        -2.240072        -0.390828         0.728177
 H        -1.515396        -0.836588         2.329621
 H        -4.028359         1.403772         1.419154
 H        -3.197867         3.108399         1.551906
 H        -0.446049         2.762782         0.453692
 H        -0.575407         2.859494         3.073537
 H        -1.028816         1.230086         3.998918
 H         1.364442         1.477365         2.081757
 H         0.624180         0.070445         2.929101
