19
Iteration:  1837
 O         0.524320        -0.154131         0.105946
 C        -0.285354         0.586904         0.964879
 C        -1.530782         0.016160         1.524517
 C        -1.828348         1.430119         2.097844
 C        -3.075005         1.962144         1.257348
 O        -2.355211         1.864671        -0.020640
 C        -0.998685         1.890651         0.565151
 C        -0.812857         1.740364         3.135374
 C         0.421473         1.002136         2.384153
 H        -0.049775        -0.376865        -0.715403
 H        -2.143014        -0.310264         0.691938
 H        -1.636885        -0.796859         2.201697
 H        -3.890918         1.304217         1.233721
 H        -3.432624         3.083830         1.550108
 H        -0.430618         2.794744         0.491827
 H        -0.878679         2.808291         3.427965
 H        -1.055990         1.295581         4.140073
 H         1.291926         1.680859         2.386482
 H         0.675511        -0.003898         2.987694
