19
Iteration:  4876charge 0 multiplicity 1
 O         0.471040        -0.107196         0.070890
 C        -0.282586         0.523765         0.985540
 C        -1.653040        -0.161808         1.593151
 C        -1.884204         1.360376         1.894955
 C        -2.952640         2.111136         1.187154
 O        -2.141655         2.167059        -0.001659
 C        -0.947032         1.918384         0.744555
 C        -0.914316         1.590177         3.128235
 C         0.316589         0.865842         2.403670
 H        -0.157658        -0.562956        -0.486042
 H        -2.300257        -0.564214         0.795085
 H        -1.659379        -0.750128         2.433442
 H        -3.952639         1.660899         1.097759
 H        -3.048963         3.060259         1.609502
 H        -0.348720         2.834111         0.914144
 H        -0.742130         2.698007         3.122918
 H        -1.290281         1.033086         4.070833
 H         1.096426         1.565956         2.193135
 H         0.783044        -0.028348         2.805226
