19
Iteration:  3239charge 0 multiplicity 1
 O         0.561029        -0.137794         0.161048
 C        -0.304866         0.511979         1.020085
 C        -1.679452        -0.037388         1.513784
 C        -1.796311         1.411176         1.994649
 C        -2.986716         2.053311         1.265978
 O        -2.304242         1.936297        -0.011492
 C        -1.035066         1.865549         0.693538
 C        -0.850749         1.609780         3.100829
 C         0.371712         1.079281         2.287921
 H         0.196534        -0.304500        -0.753126
 H        -2.397486        -0.440774         0.768235
 H        -1.628989        -0.628799         2.445754
 H        -4.005449         1.484760         1.372406
 H        -3.131496         3.094410         1.526626
 H        -0.357712         2.669088         0.580099
 H        -0.643111         2.628315         3.358524
 H        -1.065389         1.020195         3.968008
 H         1.124708         1.923731         2.129383
 H         1.013847         0.243080         2.605714
