19
Iteration:  4325charge 0 multiplicity 1
 O         0.537607        -0.161571         0.050030
 C        -0.307419         0.498577         0.967337
 C        -1.538640        -0.091331         1.429570
 C        -1.847789         1.522445         1.950882
 C        -2.984786         2.253001         1.244340
 O        -2.312171         2.079181        -0.041353
 C        -0.991619         1.864022         0.794046
 C        -0.957141         1.529316         3.164230
 C         0.336603         0.823709         2.355782
 H         1.089888        -0.794977         0.607611
 H        -2.226473        -0.312615         0.646679
 H        -1.575941        -0.809510         2.240381
 H        -4.138342         1.889473         1.121365
 H        -3.050564         3.341344         1.587854
 H        -0.262637         2.844945         0.696330
 H        -0.684007         2.425055         3.770549
 H        -1.349272         0.810525         3.868792
 H         1.147399         1.581159         2.509067
 H         0.764395        -0.056974         2.838828
