19
Iteration:    23charge 0 multiplicity 1
 O         0.509253        -0.135990         0.162559
 C        -0.306574         0.595409         0.973039
 C        -1.436048        -0.107683         1.779482
 C        -1.887418         1.382077         1.973307
 C        -3.163188         2.002629         1.217448
 O        -2.405592         1.852182        -0.056535
 C        -1.163225         1.803903         0.644048
 C        -0.746663         1.691004         3.081754
 C         0.465186         1.250881         2.158419
 H         1.440949        -0.054650         0.501302
 H        -2.054419        -0.716945         1.115749
 H        -1.119977        -0.701257         2.636197
 H        -4.060346         1.382599         1.168675
 H        -3.430902         3.051088         1.400103
 H        -0.588266         2.674370         0.420727
 H        -0.619952         2.616528         3.614801
 H        -0.783263         0.935552         3.837740
 H         1.260747         1.951963         1.934451
 H         0.972941         0.372918         2.650183
