19
Iteration:   779
 O         0.520098        -0.194945         0.034386
 C        -0.238208         0.452657         0.939415
 C        -1.548867        -0.098727         1.516352
 C        -1.827034         1.414595         1.938776
 C        -3.020655         2.003304         1.373434
 O        -2.397582         1.982108         0.035012
 C        -1.023071         1.770231         0.642162
 C        -0.894302         1.822251         3.055453
 C         0.413726         1.154197         2.348317
 H         1.057902        -0.834515         0.515084
 H        -2.228439        -0.336478         0.720604
 H        -1.405786        -0.908700         2.289181
 H        -3.915051         1.409757         1.600571
 H        -3.245821         2.986103         1.772808
 H        -0.387980         2.747309         0.490294
 H        -0.962122         2.894134         3.213118
 H        -1.233073         1.411368         3.986292
 H         1.161392         1.914167         2.301279
 H         0.691347         0.290655         3.133979
