19
Iteration:    61charge 0 multiplicity 1
 O         0.569779        -0.257134         0.163912
 C        -0.260149         0.596687         0.979912
 C        -1.512461        -0.077749         1.444329
 C        -1.824806         1.432793         1.971039
 C        -3.103941         1.921302         1.418878
 O        -2.420783         1.800307         0.087048
 C        -1.055640         1.739281         0.578320
 C        -0.849837         1.897145         3.018210
 C         0.434950         1.267211         2.328125
 H         1.027373         0.271003        -0.567813
 H        -2.102479        -0.419156         0.564542
 H        -1.550216        -0.889962         2.236925
 H        -4.038919         1.296271         1.506845
 H        -3.402490         2.963559         1.716856
 H        -0.423777         2.688900         0.233787
 H        -1.080592         2.955729         3.377983
 H        -0.931857         1.204056         3.960384
 H         1.334747         1.883371         2.038296
 H         0.679093         0.416701         2.968250
