19
Iteration:  3834
 O         0.486077        -0.191257         0.061837
 C        -0.261389         0.540360         1.028540
 C        -1.554744        -0.083786         1.487425
 C        -1.879044         1.360329         2.013964
 C        -2.984616         2.158610         1.211375
 O        -2.195070         2.061831        -0.058531
 C        -1.013991         1.883067         0.813638
 C        -0.944375         1.571641         3.142923
 C         0.365982         0.974839         2.357016
 H        -0.164467        -0.269692        -0.626705
 H        -2.182448        -0.293145         0.605386
 H        -1.595635        -0.940359         2.267714
 H        -4.048079         1.816057         0.956747
 H        -3.136436         3.172132         1.516302
 H        -0.420893         2.703594         0.904666
 H        -0.715556         2.669058         3.346082
 H        -1.205392         1.082447         4.077447
 H         1.301084         1.683978         2.204270
 H         0.619632        -0.022460         2.948962
