19
Iteration:  4280charge 0 multiplicity 1
 O         0.574704         0.026404         0.011221
 C        -0.350781         0.419024         1.059313
 C        -1.700736        -0.043042         1.438633
 C        -1.846565         1.553126         1.971395
 C        -2.985746         2.203131         1.218473
 O        -2.225953         2.047811         0.003085
 C        -1.030183         1.810281         0.732996
 C        -0.834933         1.575007         3.160539
 C         0.301435         0.675955         2.425318
 H         1.203745        -0.666082         0.391306
 H        -2.346161        -0.163443         0.581866
 H        -1.739311        -0.956658         2.020982
 H        -4.064488         1.557146         1.180083
 H        -3.250725         3.334179         1.290535
 H        -0.223099         2.756211         0.567983
 H        -0.564438         2.660682         3.300786
 H        -1.311438         1.282624         4.074580
 H         1.279654         1.244953         2.126382
 H         0.640733        -0.159270         3.066285
