19
Iteration:   259
 O         0.446884        -0.082465         0.002305
 C        -0.224593         0.550112         1.019899
 C        -1.518419        -0.121949         1.572155
 C        -1.770707         1.509236         1.954897
 C        -3.037692         2.029116         1.303818
 O        -2.331398         1.750876        -0.035664
 C        -1.092095         1.875961         0.676145
 C        -0.913481         1.704664         3.189725
 C         0.399905         1.142525         2.320696
 H         0.820935        -0.903968         0.271850
 H        -2.238465        -0.386750         0.804137
 H        -1.340448        -0.701026         2.466509
 H        -3.862601         1.403545         1.539246
 H        -3.132216         3.088428         1.246996
 H        -0.571102         2.718510         0.360031
 H        -0.698988         2.714458         3.519067
 H        -1.183540         1.115816         4.063463
 H         1.069569         2.011438         2.031650
 H         1.003302         0.358826         2.688983
