19
Iteration:  4977charge 0 multiplicity 1
 O         0.504865        -0.095232         0.104625
 C        -0.319048         0.519239         1.017877
 C        -1.666508        -0.115786         1.432983
 C        -1.873425         1.409057         1.968457
 C        -3.012724         2.192719         1.192431
 O        -2.123378         2.071940        -0.006093
 C        -0.993862         1.875212         0.828677
 C        -0.892394         1.566620         3.099872
 C         0.359505         0.884596         2.344040
 H        -0.078090        -0.771955        -0.330994
 H        -2.177493        -0.360969         0.524063
 H        -1.724002        -1.033124         2.032149
 H        -3.938189         1.708031         1.004540
 H        -3.084729         3.132735         1.655598
 H        -0.451663         2.825785         1.161771
 H        -0.645489         2.693959         3.325004
 H        -1.298456         1.149287         4.084380
 H         1.240092         1.475461         2.383576
 H         0.678348        -0.027596         2.881434
