19
Iteration:  3354
 O         0.593242        -0.237919         0.258473
 C        -0.303424         0.534733         0.973218
 C        -1.579633        -0.052592         1.577414
 C        -1.839327         1.432142         1.921450
 C        -3.057780         2.035802         1.287388
 O        -2.418062         2.054710        -0.036440
 C        -0.956921         1.911610         0.669415
 C        -0.794996         1.546543         3.109345
 C         0.388778         1.078652         2.236979
 H         0.272202        -0.192758        -0.678834
 H        -2.297412        -0.533123         0.942859
 H        -1.420046        -0.683529         2.469323
 H        -3.982610         1.463617         1.072575
 H        -3.545527         3.106362         1.587332
 H        -0.419915         2.958190         0.579091
 H        -0.757533         2.539286         3.552425
 H        -1.109436         0.718534         3.731826
 H         1.083365         1.821486         2.112016
 H         0.931612         0.282193         2.692888
