19
Iteration:    67
 O         0.562519        -0.205234         0.232015
 C        -0.256469         0.609387         0.995753
 C        -1.473326        -0.103861         1.427651
 C        -1.836817         1.432151         1.944098
 C        -3.092855         1.911050         1.438496
 O        -2.455361         1.809101         0.060559
 C        -1.062732         1.780733         0.562645
 C        -0.818667         1.885220         3.015324
 C         0.425054         1.190519         2.310181
 H         0.732906         0.148816        -0.682679
 H        -2.140309        -0.524382         0.641179
 H        -1.178027        -0.791641         2.207555
 H        -4.067810         1.414424         1.448919
 H        -3.348236         2.966058         1.564393
 H        -0.609113         2.621952         0.191430
 H        -0.978758         2.896128         3.339894
 H        -0.933053         1.536760         4.024734
 H         1.360501         1.715868         2.262298
 H         0.668731         0.274709         2.910020
