19
Iteration:   305charge 0 multiplicity 1
 O         0.530583        -0.126067         0.137408
 C        -0.349546         0.550501         0.983543
 C        -1.508828        -0.145515         1.654613
 C        -1.820740         1.463245         1.965573
 C        -3.073438         1.987673         1.267072
 O        -2.400423         1.942641        -0.056012
 C        -1.122657         1.836410         0.684145
 C        -0.781298         1.769285         3.049299
 C         0.413031         0.999792         2.264142
 H         1.415346         0.008417         0.485316
 H        -2.135674        -0.442946         0.779955
 H        -1.195971        -0.791456         2.422290
 H        -3.801481         1.251532         1.153464
 H        -3.383997         2.970596         1.558824
 H        -0.647024         2.794278         0.886198
 H        -0.557232         2.861054         3.252807
 H        -1.078921         1.303183         3.922542
 H         1.186044         1.668676         1.835837
 H         0.861873         0.164198         2.886371
