19
Iteration:   422charge 0 multiplicity 1
 O         0.431627        -0.087929        -0.012518
 C        -0.239570         0.534881         0.933076
 C        -1.516718        -0.019879         1.480044
 C        -1.835189         1.366705         1.992670
 C        -3.013150         1.940821         1.299847
 O        -2.356175         1.865770         0.039212
 C        -0.986497         1.835171         0.694653
 C        -0.896628         1.801964         3.052800
 C         0.388331         1.073705         2.513020
 H         0.610984        -1.004424         0.421423
 H        -2.088690        -0.256007         0.509276
 H        -1.510998        -0.826334         2.193425
 H        -3.902046         1.274072         1.314593
 H        -3.043785         3.043497         1.599497
 H        -0.445382         2.868972         0.399225
 H        -0.520707         2.848035         3.033924
 H        -1.056652         1.575905         4.143521
 H         1.241287         1.788402         2.265377
 H         0.530812         0.232564         3.007170
