19
Iteration:  2780
 O         0.625388        -0.230808         0.173669
 C        -0.204266         0.504705         1.003090
 C        -1.606151        -0.090297         1.522345
 C        -1.821853         1.435542         1.919798
 C        -3.062225         2.298668         1.281023
 O        -2.398315         1.868806         0.043900
 C        -1.114709         1.873933         0.669993
 C        -0.917084         1.498453         3.143758
 C         0.454992         1.087681         2.291955
 H         0.641108         0.014409        -0.818421
 H        -2.114199        -0.344166         0.562021
 H        -1.716403        -0.819396         2.333417
 H        -3.981931         1.830611         1.303669
 H        -3.060862         3.488004         1.362243
 H        -0.620960         2.865734         0.538115
 H        -0.865415         2.586631         3.374487
 H        -0.945971         0.892600         4.082110
 H         1.090457         2.017943         1.994315
 H         1.030353         0.334637         2.724151
