19
Iteration:  1417
 O         0.426192        -0.263974         0.085691
 C        -0.206859         0.565794         0.982899
 C        -1.530094         0.012912         1.567421
 C        -1.784882         1.452312         2.001762
 C        -3.061735         1.997112         1.266535
 O        -2.343820         1.869260        -0.101691
 C        -1.057708         1.910011         0.697634
 C        -0.874758         1.680268         3.128331
 C         0.438952         1.066611         2.382031
 H         0.725124         0.277396        -0.688270
 H        -2.390953        -0.480311         0.963518
 H        -1.303090        -0.762155         2.380789
 H        -4.068735         1.527737         1.147001
 H        -3.189647         3.110908         1.380646
 H        -0.523278         2.943353         0.627836
 H        -0.909905         2.740629         3.646144
 H        -1.021164         1.118605         4.067151
 H         1.201712         1.788618         2.175605
 H         0.918727         0.211850         3.143765
