19
Iteration:  2888charge 0 multiplicity 1
 O         0.604374        -0.108256         0.082709
 C        -0.309193         0.532494         1.034063
 C        -1.652559        -0.080321         1.608623
 C        -1.804253         1.497339         1.953561
 C        -2.962665         2.099621         1.305326
 O        -2.334329         1.917966        -0.037409
 C        -1.029299         1.812434         0.687017
 C        -0.944437         1.577758         3.130835
 C         0.433326         1.051709         2.295644
 H        -0.019076        -0.316938        -0.650256
 H        -2.250797        -0.404501         0.715865
 H        -1.717288        -0.866443         2.424763
 H        -3.930982         1.671435         1.388594
 H        -3.053518         3.136176         1.461224
 H        -0.495356         2.662219         0.514052
 H        -0.745931         2.583184         3.504654
 H        -1.265514         0.946639         3.945414
 H         1.220355         1.887179         2.035080
 H         1.005755         0.244330         2.669307
