19
Iteration:  3316charge 0 multiplicity 1
 O         0.680467        -0.205492         0.109641
 C        -0.300552         0.480449         0.961698
 C        -1.640970        -0.134699         1.500303
 C        -1.855163         1.373351         1.985981
 C        -3.063166         2.068239         1.276381
 O        -2.371938         2.041286         0.017366
 C        -0.982604         1.845475         0.727022
 C        -0.840140         1.774880         3.096795
 C         0.310837         1.046179         2.359199
 H         0.355706        -0.236908        -0.851634
 H        -2.374211        -0.342352         0.656445
 H        -1.593145        -0.926200         2.276586
 H        -3.998274         1.367017         1.279077
 H        -3.231847         2.940928         1.779964
 H        -0.390408         2.705548         0.744696
 H        -0.602360         2.866622         3.075402
 H        -0.791954         1.461707         4.149048
 H         1.284366         1.609773         1.959524
 H         0.702415         0.125899         2.925873
