19
Iteration:  4178
 O         0.615765        -0.133980         0.194866
 C        -0.283922         0.546115         0.918601
 C        -1.638441        -0.043218         1.396357
 C        -1.876864         1.464135         1.958168
 C        -2.988763         2.218055         1.243919
 O        -2.268828         2.078877         0.039338
 C        -0.997816         1.873123         0.659290
 C        -0.895413         1.505908         3.119403
 C         0.297545         0.809631         2.461215
 H         0.243168        -0.619001        -0.548565
 H        -2.429732        -0.278438         0.685481
 H        -1.428704        -0.835590         2.120004
 H        -4.116498         1.773609         1.184302
 H        -3.145496         3.388864         1.440017
 H        -0.316500         2.831558         0.446798
 H        -0.570217         2.458373         3.427530
 H        -1.099848         0.921067         4.041414
 H         1.221152         1.318091         2.472190
 H         0.535268        -0.163549         2.816720
