19
Iteration:  3977
 O         0.485243        -0.149396         0.034832
 C        -0.308936         0.615451         1.043049
 C        -1.614902        -0.046077         1.399702
 C        -1.872922         1.511964         1.981832
 C        -3.047906         2.137878         1.116483
 O        -2.203973         2.048459        -0.042114
 C        -0.957114         1.968957         0.747495
 C        -0.918188         1.442492         3.267109
 C         0.418646         0.848011         2.423325
 H         0.188135        -1.034624         0.206394
 H        -2.305716        -0.370855         0.567902
 H        -1.437059        -0.881805         2.138472
 H        -3.963993         1.574919         1.157833
 H        -3.390259         3.193050         1.384008
 H        -0.357939         2.992438         0.751753
 H        -0.667020         2.408773         3.814944
 H        -1.263099         0.773374         4.023443
 H         1.250904         1.715680         2.326486
 H         0.899692        -0.098738         2.901963
