19
Iteration:  1074
 O         0.546152        -0.308803         0.105335
 C        -0.277285         0.539795         0.993922
 C        -1.575989        -0.108323         1.586814
 C        -1.816358         1.432877         1.993161
 C        -3.017805         2.029673         1.291504
 O        -2.430868         1.863384        -0.009867
 C        -1.106080         1.830006         0.632580
 C        -0.845914         1.726196         3.140083
 C         0.479886         1.267272         2.260830
 H         1.088819         0.284252        -0.397908
 H        -2.201646        -0.583479         0.754371
 H        -1.295769        -0.921636         2.301544
 H        -3.999880         1.621263         1.444972
 H        -3.212053         3.123615         1.438865
 H        -0.723927         2.856366         0.598885
 H        -0.938225         2.800862         3.394157
 H        -0.999227         1.164223         4.063382
 H         1.150549         2.037417         2.141362
 H         1.030337         0.511629         2.857081
