19
Iteration:  3307charge 0 multiplicity 1
 O         0.630752        -0.158257         0.124370
 C        -0.291694         0.528612         0.916950
 C        -1.598742        -0.105516         1.474027
 C        -1.836079         1.434562         1.956242
 C        -3.009779         2.042031         1.313867
 O        -2.320764         1.961695         0.045014
 C        -1.042696         1.824203         0.761069
 C        -0.860665         1.773823         3.052228
 C         0.323084         0.985219         2.358952
 H         0.074799        -0.342293        -0.705445
 H        -2.200394        -0.454972         0.578003
 H        -1.595476        -0.953350         2.217535
 H        -4.078353         1.587995         1.510668
 H        -3.109837         3.160340         1.595822
 H        -0.489627         2.801908         0.732832
 H        -0.741320         2.797019         2.965577
 H        -1.031827         1.434669         4.092254
 H         1.321394         1.551776         2.224973
 H         0.530153         0.156260         2.992395
