19
Iteration:  4933
 O         0.640215        -0.174454         0.291598
 C        -0.356920         0.508575         0.905943
 C        -1.693489        -0.031051         1.412380
 C        -1.730675         1.488219         1.874086
 C        -2.949154         2.237788         1.401132
 O        -2.321075         2.078202        -0.002512
 C        -0.952448         1.843614         0.595894
 C        -0.924488         1.471434         3.097011
 C         0.263251         0.869870         2.382370
 H         0.755924         0.076869        -0.666482
 H        -2.554910        -0.306274         0.829910
 H        -1.806071        -0.888064         2.052035
 H        -3.822386         1.654179         1.592886
 H        -3.076894         3.281776         1.478721
 H        -0.311361         2.696736         0.328014
 H        -0.867691         2.461364         3.748061
 H        -1.326890         0.777460         3.934837
 H         1.071500         1.529830         2.156540
 H         0.798931        -0.010876         2.810452
