19
Iteration:   270charge 0 multiplicity 1
 O         0.508671        -0.098933        -0.072827
 C        -0.301532         0.514379         1.002989
 C        -1.617164        -0.005342         1.639100
 C        -1.800877         1.529045         2.021633
 C        -3.044634         1.960082         1.235812
 O        -2.336675         1.786889        -0.027054
 C        -1.040268         1.799021         0.664172
 C        -0.825974         1.715712         3.176566
 C         0.431464         1.145680         2.342481
 H         1.158581        -0.681927         0.355241
 H        -2.339138        -0.358660         0.891570
 H        -1.682775        -0.798449         2.373855
 H        -3.930613         1.345162         1.289291
 H        -3.454445         2.936289         1.415947
 H        -0.581580         2.725388         0.635792
 H        -0.733322         2.704784         3.631662
 H        -1.071422         0.986619         3.925155
 H         1.027894         2.059350         2.039681
 H         1.075561         0.560907         2.948485
