19
Iteration:   355charge 0 multiplicity 1
 O         0.621972        -0.182574         0.212964
 C        -0.251020         0.485482         1.011708
 C        -1.589139        -0.116676         1.469314
 C        -1.777175         1.525178         1.956422
 C        -3.042101         2.025903         1.339227
 O        -2.495394         1.872372        -0.053217
 C        -1.083487         1.807105         0.656762
 C        -0.782986         1.678145         3.094513
 C         0.387182         1.115499         2.305192
 H         0.736841         0.313727        -0.604571
 H        -2.309424        -0.182360         0.634085
 H        -1.606053        -0.709704         2.401252
 H        -4.082437         1.560913         1.563025
 H        -3.070292         3.168515         1.428165
 H        -0.468706         2.787346         0.450168
 H        -0.740905         2.706841         3.405317
 H        -0.995520         0.984228         4.007948
 H         1.105916         1.973137         2.099209
 H         0.902210         0.491297         2.975317
