19
Iteration:  1551
 O         0.544832        -0.189705         0.140455
 C        -0.318394         0.537238         1.069845
 C        -1.641224         0.001167         1.674618
 C        -1.806026         1.477161         1.995051
 C        -3.067577         2.048615         1.195998
 O        -2.306510         1.873891        -0.120231
 C        -1.111399         1.930849         0.694456
 C        -0.768046         1.570461         3.123704
 C         0.421325         1.094726         2.309050
 H         0.259791        -0.089342        -0.730585
 H        -2.336866        -0.423831         0.979767
 H        -1.388444        -0.701769         2.478614
 H        -3.856062         1.300469         1.091592
 H        -3.289932         3.037723         1.414257
 H        -0.381568         2.807415         0.664284
 H        -0.499834         2.576987         3.634737
 H        -1.113364         0.811373         3.900514
 H         1.028712         1.937562         1.837862
 H         1.094009         0.263169         2.567863
