19
Iteration:   661charge 0 multiplicity 1
 O         0.568065        -0.149895         0.172615
 C        -0.383731         0.520936         0.924093
 C        -1.623969        -0.166895         1.626870
 C        -1.858990         1.405910         2.070456
 C        -3.100502         1.946381         1.204423
 O        -2.330727         2.046137        -0.026367
 C        -1.136174         1.879586         0.697095
 C        -0.717613         1.737317         3.083580
 C         0.450131         1.037736         2.206073
 H         1.514358         0.064575         0.422642
 H        -2.289443        -0.549682         0.881953
 H        -1.402689        -0.856278         2.422882
 H        -4.021873         1.342559         0.997807
 H        -3.512564         2.962860         1.424878
 H        -0.540656         2.743242         0.598063
 H        -0.540174         2.818183         3.350813
 H        -0.756169         1.226894         4.058714
 H         1.247793         1.772857         1.900500
 H         0.780896         0.194340         2.760815
