19
Iteration:   503charge 0 multiplicity 1
 O         0.533074        -0.281271         0.087332
 C        -0.167759         0.533193         0.962994
 C        -1.534243        -0.030026         1.433372
 C        -1.826310         1.413541         1.983471
 C        -3.025972         2.092885         1.309379
 O        -2.448431         1.842227         0.044622
 C        -1.051283         1.878005         0.660882
 C        -0.896232         1.632084         3.159510
 C         0.339778         1.193871         2.350983
 H         1.516644        -0.078416        -0.044025
 H        -2.233567        -0.351600         0.683209
 H        -1.406784        -0.863455         2.195800
 H        -4.093737         1.858650         1.329514
 H        -2.998737         3.234716         1.475943
 H        -0.698079         2.840659         0.441770
 H        -0.790182         2.720661         3.330268
 H        -0.947356         1.107097         4.088696
 H         1.030972         1.938258         2.099014
 H         1.035687         0.433725         2.873772
