19
Iteration:   413charge 0 multiplicity 1
 O         0.438187        -0.075543        -0.007271
 C        -0.253429         0.580279         0.990525
 C        -1.528277        -0.062235         1.513324
 C        -1.772557         1.399174         2.024086
 C        -3.036749         1.940938         1.273999
 O        -2.351617         1.884118        -0.043752
 C        -1.043882         1.795084         0.653929
 C        -0.858459         1.762647         3.131423
 C         0.457102         1.094254         2.496172
 H         0.381588        -1.068548         0.063818
 H        -2.306307        -0.176616         0.714368
 H        -1.600289        -0.967309         2.098791
 H        -4.018970         1.462790         1.216135
 H        -3.195138         3.058207         1.491460
 H        -0.455683         2.657829         0.493682
 H        -0.887169         2.882625         3.055783
 H        -1.098352         1.466242         4.123784
 H         1.324729         1.807922         2.426897
 H         0.741189         0.210477         3.038013
