19
Iteration:  2848charge 0 multiplicity 1
 O         0.590993        -0.177628         0.013224
 C        -0.240121         0.520008         1.013397
 C        -1.560484        -0.032771         1.529681
 C        -1.830594         1.479030         2.044248
 C        -3.104661         1.969076         1.221543
 O        -2.329507         1.976074        -0.082277
 C        -1.102470         1.971687         0.729472
 C        -0.794325         1.734219         3.214269
 C         0.418928         0.898081         2.344195
 H         0.044128        -0.852238        -0.381481
 H        -2.276578        -0.178723         0.773341
 H        -1.706651        -0.734261         2.345397
 H        -4.003558         1.286271         1.295878
 H        -3.420911         3.113470         1.316674
 H        -0.470111         2.978690         0.888264
 H        -0.687253         2.837719         3.266477
 H        -1.217404         1.329405         4.214382
 H         1.354093         1.455850         2.258232
 H         0.608177        -0.089623         2.872712
