19
Iteration:  1884charge 0 multiplicity 1
 O         0.727837        -0.051600         0.178369
 C        -0.285246         0.515507         0.985140
 C        -1.661498        -0.078395         1.597252
 C        -1.861789         1.369694         1.990863
 C        -3.102463         2.114916         1.210602
 O        -2.410351         1.902881        -0.005386
 C        -1.127834         1.783686         0.695550
 C        -0.742513         1.714050         3.061894
 C         0.389567         0.986567         2.280689
 H         0.308483        -0.073345        -0.712310
 H        -2.413186        -0.549112         1.003146
 H        -1.451285        -0.849081         2.320959
 H        -4.176719         1.719449         1.445887
 H        -2.944809         3.255442         1.645702
 H        -0.395236         2.620808         0.383659
 H        -0.510648         2.770022         3.301182
 H        -0.904181         1.331972         4.133776
 H         1.312888         1.585959         1.996302
 H         0.631335         0.084270         2.764378
