19
Iteration:  1289charge 0 multiplicity 1
 O         0.531692        -0.130845         0.104397
 C        -0.337038         0.558335         0.979906
 C        -1.630120        -0.098235         1.688667
 C        -1.828391         1.384641         2.030831
 C        -3.043855         1.956177         1.183915
 O        -2.269169         1.895223        -0.088668
 C        -1.083124         1.834330         0.715808
 C        -0.760875         1.753369         3.141635
 C         0.436347         1.105249         2.280343
 H         0.122795         0.093402        -0.773208
 H        -2.439112        -0.404204         0.996165
 H        -1.494902        -0.686771         2.553737
 H        -3.963047         1.273248         1.490413
 H        -3.398192         3.032786         1.416339
 H        -0.578952         2.780360         0.765477
 H        -0.768364         2.801179         3.152693
 H        -0.935965         1.216033         4.101682
 H         1.259362         1.882187         1.919006
 H         0.800977         0.240887         2.783840
