19
Iteration:  2713
 O         0.555225        -0.102942         0.083007
 C        -0.271391         0.536448         1.006726
 C        -1.579799        -0.098621         1.573695
 C        -1.861536         1.388419         2.005385
 C        -3.079966         2.014463         1.212246
 O        -2.305532         2.053047        -0.024436
 C        -1.085999         1.862370         0.736136
 C        -0.737814         1.708757         3.022446
 C         0.396323         0.923523         2.398059
 H        -0.041755        -0.698318        -0.384193
 H        -2.199476        -0.332110         0.668204
 H        -1.552284        -0.876498         2.357903
 H        -3.793482         1.333426         0.989179
 H        -3.459529         3.028451         1.621769
 H        -0.632548         2.839738         0.853826
 H        -0.652835         2.810831         2.926213
 H        -0.961818         1.548608         4.099185
 H         1.390911         1.443967         2.391620
 H         0.390837         0.071677         2.993763
