19
Iteration:  4591
 O         0.451796        -0.113803         0.043636
 C        -0.334307         0.564363         1.043085
 C        -1.748042        -0.067735         1.431718
 C        -1.871513         1.407066         1.968890
 C        -2.944905         2.152423         1.186746
 O        -2.216178         2.088886        -0.096131
 C        -1.019260         1.936024         0.775167
 C        -0.827326         1.498852         3.196317
 C         0.432270         0.881587         2.426750
 H         0.846702        -0.983920         0.375696
 H        -2.242687        -0.207185         0.517927
 H        -1.740757        -0.893458         2.074318
 H        -3.882925         1.603942         1.068134
 H        -3.093297         3.148325         1.602698
 H        -0.277111         2.830745         0.782695
 H        -0.582060         2.323255         3.729581
 H        -1.200634         0.874949         3.970955
 H         1.237403         1.533992         2.273271
 H         0.753826         0.099118         3.003645
