19
Iteration:  3494
 O         0.614217        -0.305547         0.201986
 C        -0.223771         0.515479         0.963430
 C        -1.582365        -0.025558         1.512802
 C        -1.857811         1.442668         1.989452
 C        -3.044965         2.141936         1.318217
 O        -2.374247         2.049391        -0.035384
 C        -1.047315         1.906968         0.665974
 C        -0.907157         1.478360         3.075812
 C         0.379637         1.079037         2.283787
 H         0.759147         0.008267        -0.762593
 H        -2.304208        -0.447400         0.799301
 H        -1.489968        -0.659649         2.461263
 H        -4.090401         1.670350         1.426865
 H        -3.132371         3.107939         1.658398
 H        -0.412649         2.694638         0.655098
 H        -0.736281         2.459699         3.426932
 H        -1.279831         0.799821         3.891261
 H         1.064255         2.091332         2.254288
 H         1.022083         0.293537         2.722292
