19
Iteration:  2639charge 0 multiplicity 1
 O         0.612282        -0.129224         0.246979
 C        -0.315479         0.574132         0.987327
 C        -1.618926        -0.087117         1.539229
 C        -1.811402         1.461113         1.965520
 C        -2.946857         2.201663         1.251613
 O        -2.379500         1.913238        -0.038708
 C        -1.101381         1.791653         0.633582
 C        -0.787390         1.507040         3.146283
 C         0.342290         1.043907         2.268998
 H         0.138772        -0.239522        -0.653483
 H        -2.370982        -0.324493         0.785684
 H        -1.505401        -0.864454         2.236790
 H        -4.026243         1.727574         1.490098
 H        -2.936199         3.294833         1.454122
 H        -0.596839         2.858533         0.622492
 H        -0.531723         2.396496         3.714753
 H        -1.036675         0.887952         3.984091
 H         0.791337         1.967855         2.008595
 H         1.056364         0.230198         2.430174
