19
Iteration:   528charge 0 multiplicity 1
 O         0.447097        -0.243717         0.145013
 C        -0.219784         0.591505         1.029822
 C        -1.471089        -0.049201         1.538267
 C        -1.829104         1.438892         1.936405
 C        -3.040948         1.955894         1.336341
 O        -2.402347         1.976880        -0.057557
 C        -1.120157         1.843196         0.695321
 C        -0.848920         1.730965         2.998324
 C         0.436379         1.077700         2.412119
 H         1.090484         0.253438        -0.431152
 H        -1.987810        -0.579568         0.681823
 H        -1.242726        -0.845837         2.263322
 H        -4.025771         1.419478         1.211846
 H        -3.321871         3.007954         1.555849
 H        -0.732973         2.818467         0.702704
 H        -0.768116         2.792521         3.206906
 H        -1.054247         1.100769         3.923401
 H         1.416508         1.585396         2.259291
 H         0.859596         0.038932         2.781444
