19
Iteration:  2536
 O         0.569268        -0.164814         0.174865
 C        -0.248421         0.520084         1.003626
 C        -1.643127        -0.068149         1.494714
 C        -1.792922         1.415959         1.927037
 C        -2.938545         2.167363         1.314169
 O        -2.455133         1.907194        -0.010477
 C        -1.055898         1.771230         0.634845
 C        -0.861826         1.547473         3.142874
 C         0.424327         1.147833         2.353730
 H         0.298419        -0.030655        -0.762313
 H        -2.305378        -0.344456         0.648941
 H        -1.578121        -0.848641         2.329418
 H        -3.924651         1.862660         1.472836
 H        -2.967961         3.351057         1.423574
 H        -0.341769         2.706659         0.440566
 H        -0.629584         2.549487         3.506508
 H        -1.253866         0.750911         3.800967
 H         1.091763         2.016193         2.191882
 H         1.014386         0.470617         2.782792
