19
Iteration:   572
 O         0.563820        -0.083850         0.058765
 C        -0.286042         0.469860         1.003045
 C        -1.665549        -0.078469         1.661764
 C        -1.837081         1.467070         1.994864
 C        -3.055463         1.982246         1.231467
 O        -2.312924         1.910522        -0.038581
 C        -1.054121         1.745080         0.737441
 C        -0.756097         1.726559         3.096582
 C         0.358282         1.057389         2.257949
 H         0.882851         0.742418        -0.390847
 H        -2.460124        -0.286115         0.884703
 H        -1.674998        -0.721263         2.558757
 H        -4.013814         1.337232         1.225865
 H        -3.495756         3.000507         1.398578
 H        -0.438397         2.593026         0.662822
 H        -0.603933         2.775437         3.369640
 H        -0.949606         1.132042         4.035779
 H         1.199245         1.757848         2.012921
 H         0.927755         0.388308         3.029959
