19
Iteration:   211charge 0 multiplicity 1
 O         0.751822        -0.099754         0.208073
 C        -0.302205         0.434941         0.986189
 C        -1.584155        -0.086777         1.554520
 C        -1.838155         1.476437         1.986928
 C        -3.173182         2.044992         1.360227
 O        -2.455061         1.874928         0.000569
 C        -1.054570         1.781578         0.637592
 C        -0.785465         1.817650         3.038907
 C         0.370725         1.032699         2.254668
 H         0.375782        -0.139420        -0.732586
 H        -2.265791        -0.356641         0.728272
 H        -1.363827        -0.802555         2.397332
 H        -3.977165         1.257570         1.440282
 H        -3.430196         3.103117         1.561948
 H        -0.416782         2.642213         0.522530
 H        -0.562786         2.888711         3.156044
 H        -0.925402         1.326876         4.072788
 H         1.038682         1.797491         1.881457
 H         1.017968         0.249183         2.723851
