19
Iteration:  1955
 O         0.569966        -0.193470         0.184482
 C        -0.270819         0.598624         1.005797
 C        -1.551627        -0.020239         1.574690
 C        -1.855029         1.493735         1.966759
 C        -3.102202         1.883228         1.308680
 O        -2.360432         1.999710        -0.050123
 C        -1.058212         1.893405         0.718893
 C        -0.799936         1.688111         3.075528
 C         0.461283         1.014073         2.254201
 H         0.084786        -0.597770        -0.546136
 H        -2.223426        -0.451418         0.771998
 H        -1.636912        -0.744734         2.463740
 H        -4.060469         1.239498         1.082635
 H        -3.397100         2.935036         1.369120
 H        -0.524393         2.833236         0.590775
 H        -0.605378         2.704731         3.468077
 H        -1.033396         1.106425         3.957127
 H         1.103162         1.815629         2.027455
 H         0.898590         0.043916         2.727211
