19
Iteration:  2055charge 0 multiplicity 1
 O         0.601466        -0.180502         0.190109
 C        -0.338386         0.523113         0.979889
 C        -1.642564         0.000019         1.591315
 C        -1.856824         1.509900         1.947869
 C        -3.073427         1.989661         1.237235
 O        -2.330757         1.957092        -0.002547
 C        -1.046240         1.870815         0.678488
 C        -0.745807         1.571577         3.130237
 C         0.447955         1.129002         2.239488
 H         0.146906        -0.686538        -0.476572
 H        -2.323055        -0.355864         0.802059
 H        -1.547303        -0.770147         2.421769
 H        -4.005587         1.220904         1.297435
 H        -3.534243         2.957395         1.617445
 H        -0.489596         2.785070         0.425108
 H        -0.561518         2.560198         3.604950
 H        -1.160141         0.827686         3.789931
 H         1.012331         1.992565         2.032272
 H         1.035000         0.309739         2.745008
