19
Iteration:  2300charge 0 multiplicity 1
 O         0.501612        -0.050615         0.078530
 C        -0.333469         0.528140         1.010543
 C        -1.584431        -0.083454         1.700137
 C        -1.909679         1.413945         1.999892
 C        -3.046032         2.073339         1.184145
 O        -2.296592         1.915048        -0.086322
 C        -1.067376         1.813732         0.683442
 C        -0.747098         1.612713         3.136334
 C         0.425196         1.028924         2.316682
 H         0.143525        -0.155096        -0.771190
 H        -2.168274        -0.598409         0.986840
 H        -1.507719        -0.632593         2.597423
 H        -4.047836         1.540422         1.159697
 H        -3.058788         3.190099         1.607672
 H        -0.334202         2.795893         0.733332
 H        -0.631089         2.687542         3.323008
 H        -0.891541         1.115140         4.091821
 H         1.116991         1.736250         2.099069
 H         1.084963         0.231036         2.831839
