19
Iteration:  3927
 O         0.671252        -0.251452         0.179131
 C        -0.309338         0.461604         0.920594
 C        -1.675250        -0.116140         1.349639
 C        -1.867459         1.360497         1.944943
 C        -3.012667         2.226099         1.273052
 O        -2.291855         2.159711         0.028339
 C        -1.016208         1.806265         0.754550
 C        -0.889721         1.600801         3.117110
 C         0.338274         0.956135         2.424149
 H         0.851578         0.294008        -0.650868
 H        -2.412044        -0.176976         0.549883
 H        -1.750547        -0.918908         2.043203
 H        -4.104192         1.854839         1.193737
 H        -3.171740         3.182126         1.875366
 H        -0.455738         2.741015         0.636348
 H        -0.868698         2.661327         3.226530
 H        -0.966139         1.093352         4.124881
 H         1.240210         1.515054         2.335227
 H         0.594944         0.065971         2.853204
