19
Iteration:  1534
 O         0.600135        -0.184261         0.221725
 C        -0.314668         0.543100         0.957385
 C        -1.581915        -0.032411         1.558730
 C        -1.836291         1.565123         1.987465
 C        -3.117469         2.034830         1.218303
 O        -2.365836         1.905133        -0.009446
 C        -1.029304         1.842441         0.699223
 C        -0.766668         1.643714         3.130057
 C         0.431205         0.991732         2.244291
 H         0.305880        -0.162918        -0.662738
 H        -2.292418        -0.436562         0.786410
 H        -1.609356        -0.759764         2.375138
 H        -4.068719         1.391833         1.249591
 H        -3.442385         3.167224         1.213579
 H        -0.628006         2.802417         0.444587
 H        -0.633750         2.626376         3.536213
 H        -0.969010         1.134161         4.056256
 H         1.167081         1.822006         2.119066
 H         0.842621         0.206885         2.857016
