19
Iteration:  2625
 O         0.617950        -0.152636         0.124047
 C        -0.319475         0.513859         0.946916
 C        -1.649041        -0.073334         1.517764
 C        -1.824373         1.441206         1.978720
 C        -3.008592         2.125881         1.357712
 O        -2.309047         1.894442         0.009473
 C        -1.025809         1.895778         0.696097
 C        -0.906149         1.608912         3.109942
 C         0.387056         1.043861         2.279824
 H         0.182363        -0.579428        -0.611400
 H        -2.320921        -0.467158         0.742464
 H        -1.499950        -0.706733         2.423222
 H        -4.017780         1.766949         1.342289
 H        -2.907795         3.276341         1.538476
 H        -0.360093         2.834740         0.525929
 H        -0.803530         2.664207         3.336255
 H        -1.170585         0.942919         3.954508
 H         1.149311         1.791317         2.010056
 H         0.800954         0.321899         2.872915
