19
Iteration:  1890
 O         0.699227        -0.043919         0.198114
 C        -0.318126         0.503764         0.962688
 C        -1.637980        -0.123064         1.562129
 C        -1.852334         1.393811         2.029881
 C        -3.066168         2.138019         1.224441
 O        -2.414644         1.888915        -0.009774
 C        -1.101328         1.782474         0.677647
 C        -0.719468         1.696036         3.081317
 C         0.384233         1.042506         2.268018
 H         0.231918        -0.286880        -0.685468
 H        -2.320993        -0.609967         0.806533
 H        -1.577616        -0.788439         2.485583
 H        -4.052610         1.866759         1.478282
 H        -3.012807         3.106175         1.540193
 H        -0.446617         2.614707         0.532312
 H        -0.603371         2.766878         3.294926
 H        -1.085190         1.167365         3.943890
 H         1.100590         1.837197         2.098137
 H         0.785121        -0.005612         2.733611
