19
Iteration:  4891charge 0 multiplicity 1
 O         0.550728        -0.236956         0.118154
 C        -0.306773         0.506931         1.037164
 C        -1.609891        -0.070130         1.427657
 C        -1.884671         1.432287         1.994039
 C        -3.059326         2.218533         1.179867
 O        -2.236138         2.139787        -0.067846
 C        -1.050228         1.878945         0.800036
 C        -0.849664         1.534732         3.134025
 C         0.416625         0.884432         2.405227
 H         0.078586        -0.254343        -0.770365
 H        -2.262674        -0.437956         0.628583
 H        -1.392631        -0.896211         2.219669
 H        -4.009435         1.715266         0.988930
 H        -3.247591         3.311591         1.507027
 H        -0.459536         2.747742         0.814964
 H        -0.631793         2.533496         3.560793
 H        -1.086786         1.062239         4.043295
 H         1.288149         1.575117         2.379451
 H         0.656169        -0.036997         2.998381
