19
Iteration:  3140charge 0 multiplicity 1
 O         0.547451        -0.141002        -0.007385
 C        -0.234178         0.642020         1.041704
 C        -1.615710        -0.040053         1.576597
 C        -1.855024         1.486531         1.972209
 C        -2.960654         2.162906         1.257355
 O        -2.325382         1.778026        -0.052974
 C        -1.075165         1.867921         0.751802
 C        -0.869688         1.559584         3.146485
 C         0.425237         1.044792         2.324041
 H        -0.058361        -0.824960        -0.458115
 H        -2.331155        -0.448140         0.865413
 H        -1.568180        -0.637951         2.516667
 H        -4.096835         1.786739         1.138374
 H        -2.920568         3.258828         1.578933
 H        -0.489143         2.918264         0.725602
 H        -0.810317         2.545816         3.521330
 H        -1.195167         0.948863         3.939303
 H         1.317349         1.723507         2.286932
 H         0.661812         0.240926         2.914551
