19
Iteration:  2896
 O         0.644438        -0.118896         0.109866
 C        -0.283990         0.477884         0.942019
 C        -1.688074        -0.074129         1.608520
 C        -1.822502         1.441463         1.958676
 C        -2.971098         2.182653         1.244645
 O        -2.357931         1.937102        -0.039450
 C        -1.100106         1.770442         0.686483
 C        -0.874489         1.593934         3.168932
 C         0.429300         1.055106         2.337823
 H         0.166367        -0.181589        -0.787238
 H        -2.460650        -0.379033         0.843607
 H        -1.501551        -0.830683         2.370866
 H        -3.956219         1.514503         1.393881
 H        -3.128086         3.243970         1.635557
 H        -0.469585         2.752882         0.525651
 H        -0.615531         2.596608         3.523673
 H        -1.055962         0.911457         3.955108
 H         0.934754         1.986074         2.157373
 H         1.071818         0.314751         2.801490
