19
Iteration:   243
 O         0.499204        -0.069491         0.080434
 C        -0.259064         0.640363         0.982140
 C        -1.434766        -0.038065         1.580786
 C        -1.857541         1.381289         1.977822
 C        -3.010344         2.076992         1.291211
 O        -2.427385         1.745982         0.006326
 C        -1.046382         1.824606         0.596104
 C        -0.853136         1.674034         3.044384
 C         0.400118         1.118946         2.366364
 H         0.167757        -0.944414         0.296652
 H        -2.000911        -0.612014         0.812640
 H        -1.179189        -0.789980         2.399960
 H        -4.134518         1.805350         1.301058
 H        -3.040892         3.183050         1.630621
 H        -0.543020         2.878390         0.529237
 H        -0.810014         2.773365         3.205442
 H        -1.090442         1.070833         4.027872
 H         1.188175         1.842974         2.314027
 H         0.859090         0.220499         2.933370
