19
Iteration:   737charge 0 multiplicity 1
 O         0.645323        -0.118808         0.081472
 C        -0.340937         0.560231         0.986699
 C        -1.652556        -0.002949         1.637779
 C        -1.846844         1.494938         1.989299
 C        -3.112521         2.128333         1.250831
 O        -2.374108         1.795518        -0.008308
 C        -1.094123         1.796040         0.747502
 C        -0.814845         1.625794         3.081484
 C         0.465289         1.041891         2.198906
 H         1.435340        -0.170993         0.571063
 H        -2.393365        -0.305231         0.973885
 H        -1.366075        -0.522677         2.524634
 H        -4.091112         1.570078         1.170709
 H        -3.326708         3.243496         1.214184
 H        -0.693699         2.897891         0.658038
 H        -0.657432         2.626125         3.553916
 H        -0.887945         0.839803         3.811540
 H         1.363865         1.501584         1.828649
 H         0.865000         0.148292         2.720329
