19
Iteration:  4552charge 0 multiplicity 1
 O         0.602501         0.009022        -0.091329
 C        -0.313606         0.474183         0.966506
 C        -1.731470        -0.128932         1.499488
 C        -1.899978         1.480070         2.017879
 C        -2.884561         2.294302         1.258814
 O        -2.228845         1.954062        -0.010175
 C        -0.961730         1.837105         0.799353
 C        -0.953005         1.583822         3.109747
 C         0.278716         0.801689         2.408815
 H         1.020632        -0.783356         0.252554
 H        -2.532454        -0.648938         0.884352
 H        -1.555340        -0.786572         2.468531
 H        -3.995350         2.093596         1.258239
 H        -2.765645         3.429350         1.432651
 H        -0.478767         2.759269         0.714484
 H        -0.671437         2.734209         3.445359
 H        -1.344306         0.970963         4.037628
 H         1.260743         1.421543         2.490487
 H         0.507060        -0.308281         2.812100
