19
Iteration:  1340
 O         0.644442        -0.145016         0.121265
 C        -0.334125         0.591533         0.954520
 C        -1.548479         0.006598         1.547782
 C        -1.815668         1.478503         1.976523
 C        -3.037129         2.059211         1.318481
 O        -2.480943         1.826952        -0.027730
 C        -1.073513         1.843136         0.527029
 C        -0.821486         1.626534         3.126740
 C         0.447891         1.076306         2.387976
 H         0.568218        -0.998978         0.500181
 H        -2.303964        -0.324183         0.773276
 H        -1.511079        -0.744907         2.399282
 H        -4.045847         1.584084         1.444609
 H        -2.862492         3.104117         1.545195
 H        -0.535971         2.842435         0.388220
 H        -0.666028         2.748093         3.374060
 H        -1.196742         1.164465         4.047254
 H         1.055570         1.841261         2.048651
 H         0.905620         0.081648         2.819757
