19
Iteration:  2480
 O         0.645774        -0.081616         0.164598
 C        -0.266451         0.481013         1.041495
 C        -1.685168        -0.002121         1.552147
 C        -1.850527         1.410989         1.954006
 C        -3.136555         2.024459         1.338026
 O        -2.359198         2.029935        -0.014183
 C        -1.033954         1.828427         0.613224
 C        -0.776853         1.673970         3.052838
 C         0.437052         0.936189         2.308197
 H         0.160186        -0.671652        -0.487320
 H        -2.384175        -0.274298         0.698214
 H        -1.704710        -0.865558         2.290523
 H        -3.858365         1.291460         1.250513
 H        -3.375247         3.113621         1.508906
 H        -0.289674         2.793077         0.567863
 H        -0.532422         2.694994         3.427893
 H        -1.026228         1.200405         4.060056
 H         1.266666         1.582790         2.038156
 H         0.746099         0.123931         2.833985
