19
Iteration:  3542charge 0 multiplicity 1
 O         0.640274        -0.062267         0.048170
 C        -0.273017         0.505165         1.033501
 C        -1.644669        -0.003800         1.497980
 C        -1.875882         1.392249         1.995072
 C        -3.032588         2.094287         1.267187
 O        -2.286353         1.914063        -0.002839
 C        -1.052800         1.907369         0.769664
 C        -0.849866         1.705268         3.067348
 C         0.304423         0.863222         2.354812
 H         0.372649        -0.857727        -0.368525
 H        -2.316101        -0.256163         0.663317
 H        -1.535935        -0.784686         2.227388
 H        -3.983014         1.665960         1.334540
 H        -3.071707         3.188420         1.534846
 H        -0.494011         2.966861         0.859929
 H        -0.640482         2.824263         3.185913
 H        -0.973996         1.239326         4.020703
 H         1.291231         1.372545         2.104530
 H         0.618426        -0.158568         2.797138
