19
Iteration:  2936charge 0 multiplicity 1
 O         0.591794        -0.201206         0.227636
 C        -0.270299         0.554599         0.939263
 C        -1.602734        -0.029895         1.475464
 C        -1.790655         1.404504         1.939783
 C        -2.998637         2.087017         1.388014
 O        -2.407740         1.982181        -0.003026
 C        -1.074801         1.833164         0.665288
 C        -0.820742         1.646402         2.991436
 C         0.379575         0.985784         2.352906
 H         0.687407        -0.009049        -0.707863
 H        -2.371432        -0.332651         0.792966
 H        -1.563792        -0.768765         2.261510
 H        -3.914087         1.532788         1.393806
 H        -3.302171         3.134999         1.544660
 H        -0.691899         2.857378         0.789983
 H        -0.712678         2.752465         3.158332
 H        -1.208965         1.124305         3.950078
 H         1.213111         1.676534         2.116800
 H         0.895269         0.144108         2.995071
