19
Iteration:  3257
 O         0.642293        -0.062559         0.086373
 C        -0.333266         0.531657         0.958017
 C        -1.652004         0.025333         1.636791
 C        -1.820551         1.577997         1.994344
 C        -3.096290         2.140237         1.228992
 O        -2.284694         1.809940        -0.027622
 C        -1.028609         1.831221         0.673839
 C        -0.839697         1.540540         3.153363
 C         0.390947         0.973986         2.312196
 H         0.060119        -0.600502        -0.528322
 H        -2.439083        -0.220529         0.964351
 H        -1.607082        -0.803429         2.335621
 H        -3.907825         1.516653         1.219005
 H        -3.385335         3.208242         1.433227
 H        -0.509217         2.812032         0.470692
 H        -0.526800         2.502067         3.816751
 H        -1.074594         0.800194         3.985691
 H         1.114999         1.720903         1.921898
 H         0.948088         0.048687         2.861763
