19
Iteration:  3560
 O         0.515079        -0.061919         0.016703
 C        -0.265194         0.639691         0.954035
 C        -1.534495        -0.090091         1.461928
 C        -1.796557         1.513382         1.935775
 C        -3.029251         2.103040         1.261850
 O        -2.329753         1.911458        -0.012180
 C        -1.034839         1.872908         0.731835
 C        -0.841522         1.650922         3.138556
 C         0.359058         0.844199         2.504302
 H         0.124028        -0.913139        -0.024497
 H        -2.251325        -0.350157         0.642477
 H        -1.384152        -0.906138         2.253157
 H        -4.048863         1.522913         1.155283
 H        -3.295963         3.117978         1.413778
 H        -0.575260         2.760843         0.512155
 H        -0.541167         2.678567         3.246410
 H        -1.191113         1.261216         4.136658
 H         1.416962         1.339057         2.628290
 H         0.334499        -0.112685         3.011474
