19
Iteration:  2209charge 0 multiplicity 1
 O         0.673608        -0.223530         0.146131
 C        -0.324767         0.537475         0.967094
 C        -1.630160        -0.133634         1.591346
 C        -1.883406         1.405633         1.975250
 C        -3.098613         1.924442         1.310989
 O        -2.319962         2.144480         0.042204
 C        -1.091678         1.830276         0.723680
 C        -0.844960         1.789226         2.994909
 C         0.453870         1.024751         2.263403
 H         0.214502        -0.739804        -0.602218
 H        -2.168094        -0.561993         0.695404
 H        -1.576542        -0.789085         2.492132
 H        -4.050518         1.266204         1.061983
 H        -3.591743         2.901726         1.679802
 H        -0.353514         2.804871         0.753938
 H        -0.570569         2.875175         3.016096
 H        -0.972296         1.405107         4.027297
 H         1.332405         1.754877         2.099094
 H         0.951933         0.205380         2.759667
