19
Iteration:  4028
 O         0.631582         0.037363         0.054249
 C        -0.372424         0.408717         0.985413
 C        -1.644590        -0.154341         1.520022
 C        -1.847267         1.399854         1.945847
 C        -2.996105         2.259257         1.223140
 O        -2.233987         2.154307        -0.037942
 C        -1.036201         1.766744         0.709304
 C        -0.875060         1.542509         3.121431
 C         0.245573         0.784134         2.408150
 H         1.287000        -0.580959         0.387054
 H        -2.362488        -0.463082         0.790470
 H        -1.650887        -0.878265         2.328092
 H        -3.994478         1.809058         1.217937
 H        -2.929961         3.395065         1.520608
 H        -0.334322         2.637564         0.791349
 H        -0.504623         2.599536         3.266544
 H        -1.305808         1.262284         4.110529
 H         1.039206         1.586763         2.304113
 H         0.541724        -0.118379         2.964826
