19
Iteration:   651
 O         0.578289        -0.143065         0.184841
 C        -0.359076         0.521206         1.073268
 C        -1.621734        -0.113268         1.626715
 C        -1.828562         1.451689         1.936350
 C        -3.092711         1.937367         1.249610
 O        -2.379377         2.042382        -0.029203
 C        -1.081639         1.821362         0.657418
 C        -0.700361         1.666546         3.085011
 C         0.378351         1.070386         2.171231
 H         1.369088         0.368084         0.472625
 H        -2.361593        -0.315719         0.905815
 H        -1.602385        -0.953414         2.272387
 H        -3.920582         1.194390         1.249523
 H        -3.336724         2.969687         1.504633
 H        -0.558180         2.674003         0.671499
 H        -0.454672         2.751745         3.314678
 H        -0.915517         1.066266         3.984868
 H         1.281525         1.764687         1.837720
 H         0.812531         0.218744         2.611008
