19
Iteration:   110
 O         0.689158         0.056587         0.076654
 C        -0.273579         0.525216         0.993360
 C        -1.658931        -0.082293         1.725010
 C        -1.839100         1.503265         1.995834
 C        -3.215619         2.025033         1.229118
 O        -2.384747         1.761460         0.021987
 C        -1.065774         1.715453         0.629194
 C        -0.772149         1.756060         3.080537
 C         0.461091         1.099417         2.231248
 H         0.592697        -0.868979        -0.146192
 H        -2.421001        -0.582167         1.081218
 H        -1.497895        -0.726467         2.550643
 H        -4.073795         1.371043         1.400249
 H        -3.615365         3.051116         1.409951
 H        -0.380543         2.436526         0.253777
 H        -0.551167         2.832645         3.371209
 H        -0.865299         1.326408         4.070215
 H         1.279941         1.682798         1.848039
 H         0.866369         0.278887         2.881100
