19
Iteration:  4609
 O         0.494326        -0.230237         0.133064
 C        -0.259801         0.534246         0.965395
 C        -1.597045         0.067125         1.391458
 C        -1.863418         1.478932         1.978018
 C        -3.124442         2.131899         1.182701
 O        -2.181362         2.130971         0.042786
 C        -0.982387         1.951055         0.823675
 C        -0.858283         1.418572         3.133329
 C         0.348550         0.885491         2.292343
 H         0.558842        -1.106698         0.650841
 H        -2.312034        -0.186312         0.575814
 H        -1.608302        -0.721395         2.173059
 H        -4.045120         1.467909         0.985307
 H        -3.402495         3.218374         1.291283
 H        -0.458457         2.879929         0.842348
 H        -0.705107         2.546074         3.483894
 H        -1.152581         0.784687         4.057250
 H         1.205175         1.648409         2.266180
 H         0.793715        -0.149958         2.567439
