19
Iteration:  1662charge 0 multiplicity 1
 O         0.580413        -0.237486         0.187362
 C        -0.258735         0.514883         1.002457
 C        -1.559714        -0.041538         1.554844
 C        -1.865982         1.431151         1.969905
 C        -3.032081         2.088982         1.305683
 O        -2.372035         1.887798         0.000749
 C        -1.054725         1.834460         0.664787
 C        -0.879036         1.667825         3.070056
 C         0.413144         1.137762         2.303263
 H         0.229985        -0.057347        -0.754845
 H        -2.248789        -0.311550         0.753273
 H        -1.479211        -0.729064         2.345735
 H        -4.095864         1.685549         1.275853
 H        -3.064429         3.190109         1.385113
 H        -0.563559         2.785960         0.263148
 H        -0.517554         2.667501         3.402320
 H        -1.024651         0.884395         3.899774
 H         1.206776         1.921082         2.141138
 H         0.903084         0.338883         2.747094
