19
Iteration:  3686
 O         0.508478        -0.155161         0.167474
 C        -0.304822         0.534546         1.062707
 C        -1.640553        -0.023516         1.482530
 C        -1.851598         1.454778         1.934047
 C        -3.114250         2.082789         1.216095
 O        -2.271127         1.980899        -0.070070
 C        -1.037948         1.950059         0.730423
 C        -0.685470         1.575376         3.140519
 C         0.354868         0.881139         2.357403
 H         0.693816         0.272511        -0.704601
 H        -2.303374        -0.341069         0.706545
 H        -1.578858        -0.666101         2.344565
 H        -3.978185         1.530256         1.141642
 H        -3.250002         3.148461         1.604963
 H        -0.560895         2.851056         0.677637
 H        -0.603851         2.640977         3.399414
 H        -1.097550         1.061510         4.025847
 H         1.340893         1.406046         2.260147
 H         0.732031        -0.187442         2.813940
