19
Iteration:  3960charge 0 multiplicity 1
 O         0.542945        -0.134415         0.142915
 C        -0.294148         0.526682         0.965439
 C        -1.637099        -0.006979         1.515005
 C        -1.827907         1.419712         1.947893
 C        -3.000950         2.096810         1.203240
 O        -2.192712         2.181000        -0.063842
 C        -1.005120         1.888309         0.738865
 C        -0.895676         1.424599         3.144877
 C         0.319967         0.943303         2.392663
 H         0.037241        -0.855745        -0.229935
 H        -2.354490        -0.274752         0.746526
 H        -1.699681        -0.733452         2.299024
 H        -3.870225         1.385929         0.959983
 H        -3.159106         3.118009         1.679964
 H        -0.403720         2.777565         0.686881
 H        -0.830564         2.358815         3.642238
 H        -1.104865         0.656780         3.962430
 H         1.097210         1.710802         2.296211
 H         0.619201         0.005846         2.705341
