19
Iteration:  4484
 O         0.509903        -0.267679         0.022375
 C        -0.277968         0.544763         0.983919
 C        -1.604362        -0.087746         1.476236
 C        -1.872013         1.411281         1.950733
 C        -2.969966         2.119721         1.230905
 O        -2.246979         2.260611         0.004441
 C        -0.974366         1.910717         0.701694
 C        -0.984071         1.489218         3.207385
 C         0.311569         0.965977         2.357907
 H         0.943242        -0.962341         0.623498
 H        -2.253406        -0.514967         0.707027
 H        -1.410929        -0.909591         2.272010
 H        -3.949851         1.670757         1.187810
 H        -3.024815         3.205687         1.582051
 H        -0.246803         2.629628         0.497293
 H        -0.781802         2.566156         3.472644
 H        -1.141834         0.766043         4.067849
 H         1.114557         1.741845         2.251192
 H         0.828919         0.075452         2.907264
