19
Iteration:   328
 O         0.603488        -0.281107         0.102416
 C        -0.187224         0.634535         0.931423
 C        -1.550445        -0.106209         1.505722
 C        -1.868298         1.354873         1.982001
 C        -3.075582         2.038404         1.390240
 O        -2.439329         1.911126         0.063322
 C        -1.077362         1.827526         0.550794
 C        -0.889591         1.790226         3.064705
 C         0.397400         1.083420         2.358527
 H         1.502406         0.014897        -0.137197
 H        -2.151888        -0.420259         0.625494
 H        -1.435747        -0.648791         2.416082
 H        -4.031410         1.584877         1.353078
 H        -3.048763         3.087418         1.627891
 H        -0.554247         2.811047         0.450705
 H        -0.910769         2.916167         2.982213
 H        -1.014110         1.524673         4.088483
 H         1.199618         1.794300         2.425000
 H         0.659095         0.161411         3.025635
