19
Iteration:  1689charge 0 multiplicity 1
 O         0.490750        -0.153529         0.074596
 C        -0.276392         0.535650         1.007224
 C        -1.568580        -0.119600         1.637282
 C        -1.881905         1.370742         2.007292
 C        -2.986602         2.075389         1.200248
 O        -2.301718         1.899336        -0.069529
 C        -1.053617         1.848671         0.735538
 C        -0.873943         1.693510         3.155366
 C         0.431980         1.146471         2.311373
 H        -0.165706        -0.474662        -0.639208
 H        -2.262305        -0.531467         0.869044
 H        -1.453920        -0.848295         2.525255
 H        -3.968447         1.507478         1.180643
 H        -2.970416         3.176184         1.288001
 H        -0.638177         2.857877         0.645842
 H        -0.560292         2.701979         3.422126
 H        -0.960904         1.055987         4.022557
 H         1.122157         2.043762         2.057084
 H         1.176383         0.356216         2.808223
