19
Iteration:  4091charge 0 multiplicity 1
 O         0.436872        -0.269518         0.056188
 C        -0.230612         0.539866         1.020526
 C        -1.637358         0.036606         1.374208
 C        -1.804663         1.527848         1.916223
 C        -3.039680         2.111616         1.223690
 O        -2.251619         2.064831         0.022617
 C        -0.942255         1.956361         0.658446
 C        -0.972147         1.433039         3.243353
 C         0.405688         0.968511         2.431248
 H         1.304707        -0.432617         0.379493
 H        -2.197177        -0.087796         0.469339
 H        -1.830859        -0.764495         2.101282
 H        -4.031101         1.486334         1.375403
 H        -3.329567         3.083510         1.403516
 H        -0.374971         2.836045         0.467927
 H        -0.866631         2.319311         3.786525
 H        -1.318273         0.627547         3.939845
 H         1.331529         1.653724         2.509227
 H         0.833303         0.063441         2.800421
