19
Iteration:  1479
 O         0.699125        -0.104604         0.163906
 C        -0.228188         0.549751         0.959437
 C        -1.591664        -0.145937         1.575936
 C        -1.848581         1.394246         2.019113
 C        -3.103453         2.178003         1.295283
 O        -2.390613         1.961996        -0.013937
 C        -1.120666         1.777777         0.611875
 C        -0.815438         1.691947         3.060042
 C         0.382648         0.979119         2.316903
 H         0.232303        -0.872435        -0.207020
 H        -2.386970        -0.354343         0.833786
 H        -1.509318        -0.852367         2.408993
 H        -4.144004         1.708015         1.172958
 H        -2.968651         3.288027         1.507138
 H        -0.648559         2.732845         0.523880
 H        -0.707823         2.782976         3.004597
 H        -0.889617         1.330060         4.079879
 H         1.244772         1.676123         2.227352
 H         0.585340         0.135491         2.898638
