19
Iteration:   835
 O         0.598154        -0.061459         0.124286
 C        -0.343243         0.535479         1.036113
 C        -1.688805        -0.000507         1.694955
 C        -1.859037         1.511527         1.965315
 C        -3.081611         2.015287         1.232435
 O        -2.324549         1.786277         0.006249
 C        -1.039958         1.810695         0.574473
 C        -0.709126         1.635779         3.122914
 C         0.424275         1.067444         2.248909
 H         0.203435        -0.078137        -0.755313
 H        -2.391385        -0.439734         1.012839
 H        -1.540901        -0.633884         2.556061
 H        -3.905243         1.321871         1.377378
 H        -3.332069         3.047596         1.351635
 H        -0.605585         2.852780         0.428144
 H        -0.633177         2.688847         3.423499
 H        -0.957662         1.010912         3.920796
 H         1.200840         1.773209         2.089039
 H         0.991608         0.338419         2.919368
