19
Iteration:  1254charge 0 multiplicity 1
 O         0.610275        -0.217099         0.076592
 C        -0.275923         0.551904         0.972656
 C        -1.562756        -0.013824         1.590543
 C        -1.810042         1.463043         1.936596
 C        -3.102322         2.002006         1.343233
 O        -2.429915         1.881262        -0.018403
 C        -1.081371         1.827327         0.599829
 C        -0.816030         1.760029         3.081962
 C         0.429122         1.013163         2.439671
 H         1.088545         0.406570        -0.538875
 H        -2.312931        -0.387461         0.878659
 H        -1.574594        -0.686616         2.468498
 H        -4.004600         1.265834         1.519595
 H        -3.378858         3.054983         1.259297
 H        -0.592625         2.790075         0.563601
 H        -0.707433         2.831395         2.998953
 H        -1.044805         1.677366         4.117860
 H         1.329669         1.550993         2.284388
 H         0.775932         0.008545         2.854808
