19
Iteration:   290
 O         0.523789        -0.067182         0.066155
 C        -0.265823         0.494417         1.040083
 C        -1.669804        -0.050223         1.667434
 C        -1.862722         1.457394         1.999065
 C        -3.161111         1.928891         1.196171
 O        -2.320165         1.929410        -0.019652
 C        -1.077866         1.821713         0.691920
 C        -0.743212         1.687303         3.086791
 C         0.475778         1.092978         2.256568
 H         1.468331        -0.143305         0.425928
 H        -2.402325        -0.508192         0.998747
 H        -1.662267        -0.679917         2.620739
 H        -4.042578         1.225252         1.298810
 H        -3.611843         2.940907         1.305460
 H        -0.427056         2.558798         0.292703
 H        -0.555671         2.733638         3.193414
 H        -0.809786         1.144135         4.087920
 H         1.273339         1.878811         2.043191
 H         0.996992         0.257351         2.640657
