19
Iteration:  2052
 O         0.606290        -0.174699         0.186813
 C        -0.336107         0.547147         0.976622
 C        -1.627558         0.000656         1.597831
 C        -1.857930         1.530606         1.955968
 C        -3.078325         1.995808         1.223264
 O        -2.331642         1.943529        -0.010728
 C        -1.059295         1.849724         0.689846
 C        -0.754301         1.572010         3.125278
 C         0.439246         1.099042         2.244840
 H         0.164247        -0.695103        -0.488408
 H        -2.347587        -0.308870         0.815253
 H        -1.558225        -0.809982         2.380775
 H        -3.932383         1.286073         1.399072
 H        -3.461603         2.971521         1.601836
 H        -0.473710         2.805831         0.385135
 H        -0.509765         2.490870         3.650337
 H        -1.068253         0.798139         3.849223
 H         0.942319         2.003876         2.027251
 H         0.981367         0.411047         2.712349
