19
Iteration:  1406charge 0 multiplicity 1
 O         0.442963        -0.237444         0.079315
 C        -0.295639         0.556068         0.981864
 C        -1.482596        -0.090683         1.608554
 C        -1.840752         1.431074         1.924128
 C        -3.083218         2.052174         1.266988
 O        -2.277316         1.891747        -0.007459
 C        -1.084778         1.875124         0.724697
 C        -0.851722         1.745434         3.085471
 C         0.396496         1.064061         2.351101
 H         1.084198         0.383281        -0.414213
 H        -2.119925        -0.485778         0.743297
 H        -1.252991        -0.831708         2.435829
 H        -3.973688         1.420951         1.394365
 H        -3.263816         3.166709         1.356727
 H        -0.486652         2.848195         0.582770
 H        -0.713237         2.886360         3.237205
 H        -1.162284         1.145233         3.946513
 H         1.238206         1.726627         2.236619
 H         0.734782         0.055556         2.929168
