19
Iteration:  1297
 O         0.516277        -0.139022         0.081001
 C        -0.252683         0.566023         0.994851
 C        -1.642281        -0.073929         1.671710
 C        -1.809358         1.386772         2.029116
 C        -3.088565         1.991436         1.208660
 O        -2.253970         1.860374        -0.050535
 C        -1.107286         1.860514         0.727936
 C        -0.823852         1.741057         3.128666
 C         0.455187         1.099207         2.259164
 H         0.010766        -0.300954        -0.724532
 H        -2.424342        -0.500435         1.001281
 H        -1.437953        -0.830659         2.472486
 H        -4.004010         1.356899         1.051180
 H        -3.165483         3.012480         1.515753
 H        -0.561879         2.823647         0.514026
 H        -0.577465         2.809530         3.328507
 H        -1.039295         1.322118         4.100239
 H         0.962289         1.991204         2.128939
 H         1.104954         0.308143         2.796298
