19
Iteration:  1844
 O         0.539298        -0.130983         0.104818
 C        -0.270958         0.580121         1.003595
 C        -1.556474        -0.005975         1.505906
 C        -1.799637         1.483792         2.025474
 C        -3.062621         1.936765         1.309812
 O        -2.375183         1.875242        -0.002597
 C        -0.972075         1.857839         0.576164
 C        -0.822729         1.754221         3.114926
 C         0.389528         0.970789         2.408359
 H         0.046887        -0.147675        -0.721659
 H        -2.343212        -0.230578         0.702935
 H        -1.426640        -0.833462         2.304321
 H        -4.054154         1.382571         1.169367
 H        -3.422216         2.857990         1.536029
 H        -0.484240         2.835261         0.394870
 H        -0.770626         2.859496         3.158834
 H        -0.986585         1.295880         4.068478
 H         1.312029         1.538082         2.251315
 H         0.483105        -0.006312         3.084711
