19
Iteration:  2709
 O         0.565791        -0.112014         0.091970
 C        -0.296850         0.580464         1.025381
 C        -1.593234        -0.121283         1.543103
 C        -1.856762         1.358078         2.005117
 C        -3.047699         2.032328         1.236060
 O        -2.304531         2.045374        -0.012915
 C        -1.079639         1.859457         0.692416
 C        -0.724590         1.732734         3.042251
 C         0.385030         0.952745         2.382010
 H        -0.147333        -0.681525        -0.348879
 H        -2.229915        -0.432212         0.696075
 H        -1.531985        -0.970661         2.299381
 H        -3.975473         1.366595         0.900190
 H        -3.492683         2.898999         1.625122
 H        -0.544293         2.791488         0.731186
 H        -0.573835         2.829732         3.115821
 H        -1.042627         1.563397         4.078002
 H         1.419393         1.447112         2.417315
 H         0.346443        -0.082348         3.015992
