19
Iteration:  2203charge 0 multiplicity 1
 O         0.603351        -0.220338         0.125206
 C        -0.262768         0.479286         0.980343
 C        -1.616337        -0.109523         1.578613
 C        -1.809586         1.349810         2.021913
 C        -3.093004         1.930745         1.288862
 O        -2.326902         2.140742         0.028636
 C        -1.083862         1.838869         0.706005
 C        -0.860073         1.803815         3.018696
 C         0.397991         1.086022         2.262394
 H         0.259351        -0.648569        -0.621729
 H        -2.127603        -0.481937         0.716592
 H        -1.577751        -0.828202         2.384745
 H        -3.848031         1.244813         1.123054
 H        -3.374154         2.916595         1.611545
 H        -0.516313         2.676286         0.801754
 H        -0.560404         2.833654         3.130698
 H        -1.062787         1.403063         4.009290
 H         1.267051         1.751915         2.126939
 H         0.884412         0.253298         2.888494
