19
Iteration:  4629charge 0 multiplicity 1
 O         0.630373        -0.287348         0.093664
 C        -0.318796         0.508698         0.940525
 C        -1.661698        -0.004333         1.413500
 C        -1.794916         1.493883         1.932918
 C        -3.006612         2.061307         1.295361
 O        -2.259629         2.247056         0.019700
 C        -0.953701         1.979456         0.658799
 C        -0.943139         1.507516         3.188927
 C         0.302054         0.880509         2.392204
 H         0.345591        -1.132265         0.448909
 H        -2.429422        -0.208341         0.582763
 H        -1.723237        -0.913096         2.142326
 H        -3.834233         1.375140         1.153557
 H        -3.365703         3.008625         1.717496
 H        -0.403686         2.893049         0.659518
 H        -0.841603         2.590154         3.590765
 H        -1.253826         0.725027         3.905896
 H         1.121463         1.631296         2.138130
 H         0.817554        -0.044677         2.886765
