19
Iteration:  1683charge 0 multiplicity 1
 O         0.473347        -0.181366         0.107930
 C        -0.267716         0.589310         0.960023
 C        -1.564814        -0.164814         1.633452
 C        -1.852888         1.383938         1.970619
 C        -2.973195         2.117420         1.207499
 O        -2.319207         1.885163        -0.078270
 C        -1.052451         1.832815         0.724918
 C        -0.888689         1.687020         3.182527
 C         0.443702         1.126747         2.340263
 H        -0.025103        -0.392159        -0.651440
 H        -2.083070        -0.545617         0.757748
 H        -1.434148        -0.836539         2.439435
 H        -3.943651         1.661177         1.329278
 H        -3.268389         3.219351         1.327831
 H        -0.732151         2.896031         0.813886
 H        -0.582532         2.742044         3.384335
 H        -0.813475         1.036814         4.086194
 H         0.970764         1.940063         1.918008
 H         1.152327         0.533336         2.801237
