19
Iteration:  4395charge 0 multiplicity 1
 O         0.540625        -0.101381         0.046896
 C        -0.193806         0.574036         1.013827
 C        -1.666286         0.038316         1.478443
 C        -1.842888         1.471830         1.946983
 C        -3.097712         2.138817         1.167866
 O        -2.341791         2.108741        -0.068001
 C        -0.968431         1.877053         0.716766
 C        -0.845749         1.521548         3.169421
 C         0.399271         0.723158         2.487589
 H         0.746494        -0.987877         0.498774
 H        -2.320103        -0.119714         0.573869
 H        -1.600744        -0.844906         2.162850
 H        -4.096412         1.662119         1.221123
 H        -3.118692         3.211019         1.475244
 H        -0.583371         2.802564         0.608080
 H        -0.427145         2.489590         3.373945
 H        -1.323589         1.022072         4.067852
 H         1.362590         1.261470         2.498654
 H         0.601695        -0.347386         2.989592
