19
Iteration:   412charge 0 multiplicity 1
 O         0.444065        -0.077547        -0.010836
 C        -0.257657         0.580547         1.001728
 C        -1.531723        -0.067456         1.518165
 C        -1.775431         1.399760         2.016527
 C        -3.034707         1.945342         1.271934
 O        -2.349051         1.883661        -0.048937
 C        -1.052175         1.793605         0.653516
 C        -0.849224         1.764259         3.137003
 C         0.455761         1.091399         2.491663
 H         0.366202        -1.049662         0.044922
 H        -2.316411        -0.180210         0.715741
 H        -1.581733        -0.963148         2.111116
 H        -4.033011         1.475461         1.228090
 H        -3.237096         3.055646         1.495002
 H        -0.437501         2.695410         0.500665
 H        -0.901626         2.878137         3.083800
 H        -1.113448         1.440783         4.140521
 H         1.340760         1.798897         2.441901
 H         0.771529         0.253367         3.015523
