19
Iteration:  1615charge 0 multiplicity 1
 O         0.691438        -0.100669         0.219861
 C        -0.320276         0.552508         0.992773
 C        -1.607260        -0.081238         1.565364
 C        -1.827260         1.470192         1.972559
 C        -3.051071         2.085382         1.273042
 O        -2.457796         1.909138         0.005130
 C        -1.070334         1.814142         0.643992
 C        -0.719619         1.759241         3.049256
 C         0.371309         0.917405         2.292820
 H         0.195473        -0.602556        -0.458054
 H        -2.192442        -0.343120         0.695587
 H        -1.418381        -0.826273         2.378257
 H        -3.981584         1.569391         1.219871
 H        -3.310464         3.229446         1.570069
 H        -0.577306         2.778726         0.470339
 H        -0.728094         2.869774         2.940797
 H        -1.058354         1.306914         3.970274
 H         1.295661         1.345826         2.237105
 H         0.569873        -0.082089         2.816396
