19
Iteration:  4087
 O         0.436043        -0.255882         0.074820
 C        -0.229102         0.535080         1.031416
 C        -1.618883         0.023786         1.331871
 C        -1.806425         1.504066         1.944764
 C        -3.039689         2.108446         1.229178
 O        -2.266776         2.072950         0.016965
 C        -0.929023         1.921098         0.670848
 C        -0.965465         1.465591         3.253331
 C         0.395060         0.969402         2.385360
 H         1.355363        -0.516038         0.413159
 H        -2.185980        -0.039679         0.375699
 H        -1.810721        -0.789874         2.065000
 H        -3.941704         1.523070         1.444767
 H        -3.422875         3.248097         1.518699
 H        -0.237326         2.854980         0.360185
 H        -0.847351         2.398866         3.879942
 H        -1.381812         0.639947         3.827698
 H         1.154077         1.624687         2.466947
 H         0.765371         0.048266         2.924190
