19
Iteration:  1081
 O         0.580860        -0.262746         0.126521
 C        -0.281377         0.530545         0.946759
 C        -1.583143        -0.138375         1.600142
 C        -1.800954         1.428954         2.031647
 C        -3.033252         2.062974         1.219763
 O        -2.437634         1.852026         0.029369
 C        -1.126907         1.830265         0.626448
 C        -0.817432         1.742560         3.098249
 C         0.471641         1.193699         2.315993
 H         0.757162         0.490755        -0.459459
 H        -2.191051        -0.622380         0.895462
 H        -1.449622        -0.716992         2.510144
 H        -4.033458         1.590144         1.415494
 H        -3.220179         3.147372         1.342883
 H        -0.510687         2.834155         0.485511
 H        -0.779220         2.773345         3.419297
 H        -1.016004         1.007287         4.011915
 H         1.008728         2.228696         1.997344
 H         1.031346         0.408208         2.732691
