19
Iteration:  4101
 O         0.447529        -0.271754         0.045692
 C        -0.272002         0.582972         0.963768
 C        -1.657733         0.087750         1.475541
 C        -1.799564         1.522968         1.929323
 C        -3.016195         2.112811         1.240430
 O        -2.236301         2.048228        -0.052695
 C        -0.996596         1.970420         0.721376
 C        -0.925451         1.382801         3.159497
 C         0.399758         0.913891         2.508502
 H         1.376091        -0.265799         0.248962
 H        -2.270457        -0.234432         0.658396
 H        -1.653622        -0.711412         2.248600
 H        -3.907878         1.410910         0.914891
 H        -3.226921         3.162581         1.438779
 H        -0.449961         2.945187         0.758918
 H        -0.787120         2.308916         3.604861
 H        -1.250317         0.682300         3.954599
 H         1.030567         1.764044         2.331265
 H         0.805408         0.024534         2.877844
