19
Iteration:  3668charge 0 multiplicity 1
 O         0.584626        -0.242538         0.143467
 C        -0.295676         0.579444         0.902440
 C        -1.650559         0.002351         1.445659
 C        -1.802334         1.489064         2.008900
 C        -2.982700         2.080865         1.324711
 O        -2.367754         1.988822        -0.019715
 C        -1.041013         1.859963         0.667824
 C        -0.870008         1.649445         3.135258
 C         0.369233         0.871039         2.393404
 H         1.143543         0.429254        -0.302765
 H        -2.363883        -0.085773         0.592319
 H        -1.660392        -0.876766         2.107583
 H        -3.936168         1.474259         1.354496
 H        -3.220346         3.151970         1.357624
 H        -0.448331         2.923644         0.604786
 H        -0.580610         2.649812         3.390108
 H        -1.176770         1.122368         4.097041
 H         1.297092         1.377846         2.375256
 H         0.584957        -0.106742         2.817908
