19
Iteration:  1486charge 0 multiplicity 1
 O         0.707658        -0.108098         0.155242
 C        -0.290183         0.518276         0.980814
 C        -1.509457        -0.148262         1.520211
 C        -1.921290         1.397158         1.939405
 C        -3.079217         2.207230         1.318752
 O        -2.419705         1.959542         0.004680
 C        -1.096501         1.760836         0.640749
 C        -0.824670         1.744495         3.025012
 C         0.394659         0.977242         2.370744
 H         0.167601        -0.900091        -0.184544
 H        -2.283693        -0.439650         0.857480
 H        -1.400769        -0.909247         2.276973
 H        -4.137631         1.715179         1.311606
 H        -3.058414         3.211568         1.709848
 H        -0.558339         2.723138         0.423355
 H        -0.565766         2.785709         3.127885
 H        -0.969959         1.496222         4.095541
 H         1.412922         1.527559         2.191008
 H         0.543556         0.076281         2.994261
