19
Iteration:  4196charge 0 multiplicity 1
 O         0.625109        -0.153742         0.219499
 C        -0.324162         0.548356         0.995943
 C        -1.698294         0.036379         1.428887
 C        -1.811473         1.522447         1.921599
 C        -2.999919         2.178148         1.250328
 O        -2.282356         2.055442        -0.089101
 C        -0.997653         1.974795         0.722252
 C        -0.846291         1.381933         3.228376
 C         0.338442         0.832818         2.297435
 H         0.207686        -0.982123         0.004480
 H        -2.334826        -0.152371         0.560292
 H        -1.784317        -0.759329         2.225839
 H        -3.816137         1.607755         1.232605
 H        -3.203657         3.180371         1.542840
 H        -0.384486         2.878420         0.666281
 H        -0.657306         2.356316         3.768188
 H        -1.400433         0.677710         3.873725
 H         1.067723         1.644689         2.144592
 H         0.736608        -0.175814         2.667751
