19
Iteration:  4999charge 0 multiplicity 1
 O         0.474086        -0.090523         0.015435
 C        -0.348301         0.517532         0.955360
 C        -1.696526         0.028171         1.462661
 C        -1.815123         1.436904         2.045085
 C        -2.994335         2.025403         1.188885
 O        -2.156204         2.103288        -0.050133
 C        -0.850165         1.921585         0.664340
 C        -0.906399         1.543640         3.224368
 C         0.285690         0.838766         2.492172
 H         0.014743        -0.806359        -0.396289
 H        -2.422987        -0.201101         0.714377
 H        -1.761543        -0.774807         2.225129
 H        -3.768789         1.276118         1.137743
 H        -3.351990         2.999516         1.444447
 H        -0.048677         2.775345         0.579957
 H        -0.667770         2.664668         3.561944
 H        -1.216080         0.963681         4.202859
 H         1.125980         1.511241         2.501015
 H         0.753647         0.045171         3.095220
