19
Iteration:  4822charge 0 multiplicity 1
 O         0.493473        -0.118416         0.123830
 C        -0.233596         0.561040         1.007867
 C        -1.650381         0.071176         1.418921
 C        -1.933113         1.491134         1.996872
 C        -3.002944         2.186378         1.233697
 O        -2.251305         1.977716        -0.064672
 C        -1.022155         1.926842         0.742442
 C        -0.845096         1.479922         3.093289
 C         0.393022         0.800402         2.390234
 H         0.874409        -0.967228         0.428525
 H        -2.201604        -0.156910         0.487239
 H        -1.734928        -0.726873         2.096463
 H        -4.003667         1.737742         1.250723
 H        -3.079351         3.235441         1.513709
 H        -0.539669         2.834872         0.744034
 H        -0.621102         2.418478         3.636614
 H        -1.095486         0.945836         4.048539
 H         1.321858         1.324280         2.340484
 H         0.569772        -0.197653         2.812301
