19
Iteration:  2992
 O         0.496350        -0.029490         0.125987
 C        -0.310070         0.593185         1.017980
 C        -1.693697        -0.116177         1.641889
 C        -1.897745         1.358188         2.063893
 C        -3.010268         2.048340         1.213804
 O        -2.259196         1.923145        -0.065517
 C        -1.006175         1.964521         0.670994
 C        -0.770728         1.604708         3.102914
 C         0.443033         0.967096         2.266041
 H         0.043185        -0.780991        -0.388335
 H        -2.379922        -0.573870         0.923255
 H        -1.545666        -0.615235         2.549628
 H        -3.896422         1.500127         0.903116
 H        -3.260532         3.101547         1.475557
 H        -0.474243         2.928664         0.411938
 H        -0.565610         2.706898         3.336588
 H        -0.942208         1.050339         4.119699
 H         1.139328         1.766135         2.053101
 H         0.872616        -0.024697         2.830850
