19
Iteration:  4684charge 0 multiplicity 1
 O         0.649054        -0.061369         0.132924
 C        -0.419501         0.523545         0.878926
 C        -1.713802        -0.034060         1.442165
 C        -1.904164         1.467215         2.026252
 C        -2.898023         2.231886         1.187936
 O        -2.210265         1.975963        -0.026820
 C        -1.011605         1.837176         0.803158
 C        -0.855679         1.513514         3.161366
 C         0.291677         0.845837         2.381926
 H         0.253438        -0.249429        -0.709286
 H        -2.430927        -0.309766         0.592403
 H        -1.519135        -0.862340         2.254181
 H        -3.925185         1.947864         1.095738
 H        -2.789041         3.241187         1.588789
 H        -0.588426         2.856344         0.832514
 H        -0.680454         2.491192         3.707069
 H        -1.058709         0.966097         4.087953
 H         1.345111         1.286657         2.334949
 H         0.346331        -0.227224         2.848078
