19
Iteration:  4171
 O         0.646278        -0.153652         0.136524
 C        -0.285307         0.516410         0.952696
 C        -1.636305        -0.055023         1.417909
 C        -1.885138         1.398801         1.932094
 C        -2.982435         2.259541         1.276888
 O        -2.271274         2.074892         0.019241
 C        -0.995474         1.881933         0.689677
 C        -0.901647         1.583595         3.142318
 C         0.306022         0.787350         2.444914
 H         0.236873        -0.326344        -0.701852
 H        -2.372864        -0.274924         0.615314
 H        -1.620032        -0.888311         2.121549
 H        -3.916217         1.695604         1.165377
 H        -3.058682         3.239589         1.630022
 H        -0.402645         2.719316         0.554484
 H        -0.711746         2.678568         3.363317
 H        -1.345706         1.100590         4.016021
 H         1.284931         1.465887         2.474143
 H         0.312799        -0.225877         2.906423
