19
Iteration:  1232
 O         0.536612        -0.245801         0.159319
 C        -0.235930         0.598900         0.988443
 C        -1.458913        -0.077740         1.461338
 C        -1.800053         1.447875         1.938711
 C        -3.050828         2.058711         1.319065
 O        -2.465157         1.817989         0.038767
 C        -1.089563         1.838980         0.625411
 C        -0.818269         1.782056         3.076030
 C         0.351907         1.062178         2.322562
 H         1.361970         0.229748         0.033546
 H        -2.274799        -0.191772         0.775243
 H        -1.484849        -0.899948         2.184761
 H        -4.091989         1.663201         1.651195
 H        -3.021841         3.189279         1.498467
 H        -0.718152         2.819058         0.396240
 H        -0.799654         2.786534         3.417568
 H        -1.133760         1.237219         3.936715
 H         1.247425         1.643772         2.202746
 H         0.820470         0.215808         2.865316
