19
Iteration:  5000
 O         0.479647        -0.094452         0.009968
 C        -0.349154         0.516345         0.949571
 C        -1.702719         0.032434         1.471392
 C        -1.809830         1.446839         2.042683
 C        -3.003626         2.027235         1.189507
 O        -2.157455         2.101061        -0.052926
 C        -0.843677         1.927288         0.656813
 C        -0.906343         1.537919         3.231553
 C         0.291873         0.837324         2.495719
 H         0.018166        -0.803872        -0.396559
 H        -2.417167        -0.237870         0.735577
 H        -1.782585        -0.794428         2.208339
 H        -3.745368         1.296660         1.134661
 H        -3.374999         2.967272         1.471389
 H        -0.095554         2.766964         0.598756
 H        -0.665844         2.629058         3.573444
 H        -1.245703         0.993301         4.177888
 H         1.130707         1.528997         2.541303
 H         0.746427         0.045654         3.100683
