19
Iteration:  3123charge 0 multiplicity 1
 O         0.452174        -0.091829         0.031473
 C        -0.291010         0.540984         0.948013
 C        -1.450050        -0.088802         1.585841
 C        -1.851746         1.406854         1.983811
 C        -2.977278         2.146705         1.238039
 O        -2.297906         1.887221        -0.017249
 C        -1.011417         1.832454         0.660191
 C        -0.915513         1.644565         3.165485
 C         0.341523         1.027367         2.429950
 H        -0.189660        -0.741145        -0.449128
 H        -2.221807        -0.467873         0.828360
 H        -1.244109        -0.825917         2.377771
 H        -3.944660         1.836825         1.358048
 H        -2.941536         3.229956         1.326718
 H        -0.526404         2.752617         0.457718
 H        -0.721173         2.723916         3.426819
 H        -1.115804         1.031521         4.124375
 H         1.075484         1.819944         2.310734
 H         1.061554         0.183199         2.785103
