19
Iteration:  4351
 O         0.543612        -0.142443         0.042796
 C        -0.343474         0.445470         1.013408
 C        -1.697103        -0.087582         1.451108
 C        -1.890867         1.304288         1.942789
 C        -2.939742         2.175617         1.282864
 O        -2.199178         2.199432         0.011835
 C        -1.004239         1.848508         0.692658
 C        -0.946700         1.503889         3.094576
 C         0.394431         1.011849         2.422417
 H         0.879118        -1.017851         0.435837
 H        -2.336343        -0.275770         0.538451
 H        -1.886293        -0.811190         2.269818
 H        -3.930248         1.800936         1.042517
 H        -2.960075         3.156080         1.765136
 H        -0.311060         2.547105         0.571862
 H        -0.898494         2.549262         3.330803
 H        -1.188155         0.914047         4.031584
 H         0.962820         1.957664         2.316017
 H         1.125626         0.241540         2.931854
