19
Iteration:  3102charge 0 multiplicity 1
 O         0.593078        -0.128592         0.065329
 C        -0.313077         0.447925         1.017910
 C        -1.662149        -0.118127         1.570233
 C        -1.796661         1.443771         1.966978
 C        -3.030539         2.033423         1.295314
 O        -2.304525         2.018120        -0.026528
 C        -1.036940         1.835997         0.695092
 C        -0.844698         1.718030         3.099172
 C         0.384226         1.059368         2.346460
 H        -0.086820        -0.383632        -0.538502
 H        -2.227753        -0.547651         0.732166
 H        -1.519985        -0.873428         2.330732
 H        -3.860153         1.410179         1.286662
 H        -3.322555         3.035350         1.521300
 H        -0.521552         2.703400         0.655775
 H        -0.671014         2.815744         3.340488
 H        -1.059680         1.117458         4.034987
 H         1.240171         1.687039         2.079233
 H         0.849712         0.153686         2.953932
