19
Iteration:  3107charge 0 multiplicity 1
 O         0.551716        -0.118937         0.055198
 C        -0.325958         0.484019         1.014604
 C        -1.605496        -0.167236         1.556611
 C        -1.771183         1.469023         1.977734
 C        -3.004617         2.057713         1.280031
 O        -2.322250         1.991955        -0.046527
 C        -1.036306         1.824891         0.709750
 C        -0.865506         1.689976         3.124132
 C         0.401606         1.059464         2.371437
 H        -0.108016        -0.504082        -0.606788
 H        -2.345789        -0.494595         0.803289
 H        -1.454302        -0.927342         2.359233
 H        -3.996876         1.397921         1.175197
 H        -3.232650         3.119822         1.681705
 H        -0.234127         2.771855         0.569407
 H        -0.688633         2.728794         3.298414
 H        -1.208090         1.241459         4.029403
 H         1.173890         1.812683         2.102936
 H         0.752092         0.263922         2.948172
