19
Iteration:   552charge 0 multiplicity 1
 O         0.632582        -0.173514         0.053670
 C        -0.418584         0.509347         0.925527
 C        -1.650444        -0.067269         1.689182
 C        -1.834939         1.504791         2.022179
 C        -3.126481         1.897448         1.234751
 O        -2.297237         1.980473         0.011621
 C        -1.034024         1.850170         0.676941
 C        -0.794099         1.775527         3.137893
 C         0.409706         0.980987         2.328556
 H         0.993003         0.572538        -0.397501
 H        -2.365337        -0.530216         0.968737
 H        -1.456141        -0.774156         2.474834
 H        -3.859752         1.106325         0.970991
 H        -3.709271         2.784531         1.368247
 H        -0.367048         2.695728         0.449508
 H        -0.592210         2.868918         3.113193
 H        -1.036460         1.412114         4.179906
 H         1.213780         1.773177         1.982585
 H         1.032878         0.155024         2.581342
