19
Iteration:  3694
 O         0.506056        -0.154748         0.151693
 C        -0.315940         0.560123         1.001207
 C        -1.609006        -0.039624         1.542741
 C        -1.878759         1.469538         1.969009
 C        -3.083914         2.082172         1.184821
 O        -2.265949         2.006960        -0.028598
 C        -1.004180         1.904641         0.750453
 C        -0.789545         1.566169         3.139692
 C         0.429362         0.839017         2.355795
 H         0.276489         0.363631        -0.635943
 H        -2.197900        -0.373382         0.692098
 H        -1.681858        -0.754034         2.404944
 H        -4.101199         1.548400         1.039330
 H        -3.329776         3.128841         1.165604
 H        -0.453411         2.862514         0.749097
 H        -0.433798         2.636016         3.286574
 H        -1.138992         1.172337         4.078179
 H         1.219468         1.630508         2.130357
 H         0.860089        -0.047382         2.713786
