19
Iteration:  2647
 O         0.617690        -0.124682         0.261916
 C        -0.366784         0.511155         1.002120
 C        -1.602649        -0.032429         1.532253
 C        -1.809762         1.429898         1.986041
 C        -2.997289         2.249195         1.234132
 O        -2.448612         1.912253        -0.077536
 C        -1.111181         1.795639         0.634769
 C        -0.755951         1.449517         3.194893
 C         0.427748         1.078637         2.280965
 H         0.396205        -0.194049        -0.715295
 H        -2.319084        -0.205934         0.710355
 H        -1.504996        -0.803182         2.325844
 H        -3.914399         1.754729         1.192900
 H        -2.990054         3.395098         1.495217
 H        -0.419498         2.698793         0.494299
 H        -0.522592         2.417946         3.640539
 H        -1.077906         0.662715         3.910337
 H         1.040343         1.957326         1.951620
 H         1.028242         0.323553         2.581372
