19
Iteration:   134
 O         0.455926        -0.040168         0.021403
 C        -0.256431         0.574549         1.028646
 C        -1.578758        -0.043776         1.632125
 C        -1.770560         1.438857         2.006120
 C        -2.952873         1.939357         1.286946
 O        -2.378039         1.708550        -0.106038
 C        -1.125698         1.810658         0.674961
 C        -0.840379         1.745459         3.116572
 C         0.399372         1.189233         2.289091
 H         0.996901        -0.744873         0.366399
 H        -2.328073        -0.536552         0.943727
 H        -1.401214        -0.769402         2.451745
 H        -3.989517         1.616322         1.554770
 H        -2.938633         3.003118         1.517326
 H        -0.636825         2.722813         0.576633
 H        -0.653843         2.738483         3.465164
 H        -1.045294         1.254958         4.108542
 H         1.013887         1.991659         1.906884
 H         1.067456         0.564169         2.948924
