19
Iteration:  4797charge 0 multiplicity 1
 O         0.603954        -0.182576         0.126046
 C        -0.330628         0.485028         0.875696
 C        -1.680535        -0.038774         1.396141
 C        -1.800638         1.534953         1.954931
 C        -2.924539         2.244579         1.319579
 O        -2.359638         2.038745        -0.003759
 C        -0.919791         1.908557         0.634000
 C        -0.947418         1.440325         3.174777
 C         0.269193         0.873867         2.420602
 H         1.420811        -0.369292         0.573045
 H        -2.479989        -0.234022         0.742821
 H        -1.556425        -0.819441         2.086576
 H        -3.876699         1.689249         1.386738
 H        -3.051620         3.219253         1.598541
 H        -0.276553         2.793931         0.513365
 H        -0.664223         2.403608         3.513608
 H        -1.321635         1.002439         4.087501
 H         1.058993         1.646367         2.317559
 H         0.681243        -0.019855         2.818912
