19
Iteration:  3689
 O         0.504245        -0.154838         0.167927
 C        -0.312143         0.540637         1.040558
 C        -1.620120        -0.033507         1.506725
 C        -1.867773         1.458779         1.944021
 C        -3.108674         2.077211         1.206522
 O        -2.268235         1.991233        -0.054640
 C        -1.024289         1.927400         0.738111
 C        -0.709465         1.572772         3.140228
 C         0.383662         0.866187         2.355563
 H         0.531358         0.343759        -0.704729
 H        -2.270168        -0.358039         0.665003
 H        -1.634834        -0.662990         2.387308
 H        -4.059525         1.543591         1.078519
 H        -3.282874         3.191140         1.420216
 H        -0.465893         3.004459         0.700831
 H        -0.553148         2.609783         3.344258
 H        -1.163481         1.110691         4.060192
 H         1.258039         1.457897         2.215440
 H         0.805939        -0.148792         2.755566
