19
Iteration:  2436charge 0 multiplicity 1
 O         0.488920        -0.187458         0.060897
 C        -0.263023         0.601587         0.967498
 C        -1.531662        -0.049290         1.528119
 C        -1.844216         1.456392         2.005175
 C        -3.097290         2.011716         1.231215
 O        -2.315808         1.924819        -0.045700
 C        -1.066892         1.846473         0.772161
 C        -0.826929         1.716730         3.136427
 C         0.449717         0.969486         2.384466
 H         0.067660        -0.087905        -0.846721
 H        -2.262156        -0.439159         0.752759
 H        -1.398034        -0.744636         2.418703
 H        -4.047050         1.515351         1.199022
 H        -2.969761         3.089388         1.497382
 H        -0.434104         2.901541         0.659067
 H        -0.707138         2.826584         3.309511
 H        -1.045972         1.265998         4.164088
 H         1.383256         1.549096         2.392610
 H         0.641598         0.075932         2.821036
