19
Iteration:  4405
 O         0.515788        -0.036992         0.045877
 C        -0.218510         0.548284         1.094236
 C        -1.630071         0.090491         1.469747
 C        -1.808562         1.504313         1.860280
 C        -3.030087         2.189607         1.233516
 O        -2.385702         2.000730        -0.064361
 C        -0.935633         1.894734         0.704080
 C        -0.894172         1.528605         3.131497
 C         0.385519         0.661069         2.494187
 H         0.840861        -0.962096         0.336922
 H        -2.251380        -0.196270         0.580757
 H        -1.662709        -0.654088         2.289893
 H        -3.920159         1.505943         1.235583
 H        -3.256523         3.277399         1.482372
 H        -0.334163         2.787825         0.668585
 H        -0.655113         2.533720         3.352952
 H        -1.162828         0.976655         4.057788
 H         1.334868         1.150666         2.632992
 H         0.397188        -0.440453         2.711298
