19
Iteration:  4064charge 0 multiplicity 1
 O         0.597076        -0.185933         0.116264
 C        -0.323461         0.490331         0.970215
 C        -1.700989        -0.057767         1.371680
 C        -1.824415         1.409913         1.903468
 C        -2.984026         2.147822         1.288290
 O        -2.258342         2.127168         0.012302
 C        -1.007926         1.906531         0.698073
 C        -0.910781         1.485074         3.134980
 C         0.315792         0.923608         2.395220
 H         1.234504        -0.526459         0.732162
 H        -2.401480        -0.169420         0.506244
 H        -1.742352        -0.888813         2.099276
 H        -3.972994         1.745247         1.351978
 H        -3.084168         3.295585         1.686308
 H        -0.433112         2.922781         0.856218
 H        -0.686852         2.599832         3.262865
 H        -1.202026         1.007822         4.067625
 H         1.038666         1.629939         2.320741
 H         0.893863         0.049714         2.820029
