19
Iteration:  1739
 O         0.664217        -0.161455         0.201354
 C        -0.296409         0.603119         0.940030
 C        -1.567955         0.009048         1.542159
 C        -1.801164         1.472818         1.968700
 C        -3.115473         2.017910         1.306791
 O        -2.453217         1.875383        -0.045683
 C        -1.105016         1.865759         0.636831
 C        -0.737654         1.746537         3.086339
 C         0.373997         0.906216         2.401646
 H         0.310644        -0.337480        -0.703319
 H        -2.244086        -0.263163         0.727036
 H        -1.518469        -0.811563         2.195154
 H        -3.949680         1.329909         1.300290
 H        -3.114565         3.152509         1.464465
 H        -0.699796         2.900026         0.433580
 H        -0.469223         2.825775         3.187883
 H        -0.765245         1.336983         4.155905
 H         1.355722         1.338209         2.162059
 H         0.548335         0.038926         2.913433
