19
Iteration:  1140
 O         0.533639        -0.096207         0.017260
 C        -0.218942         0.602004         0.986836
 C        -1.491717        -0.058717         1.522186
 C        -1.824735         1.480087         2.039548
 C        -3.124489         2.018062         1.300159
 O        -2.400701         1.799100        -0.018878
 C        -1.080752         1.802664         0.715344
 C        -0.818400         1.843482         3.061595
 C         0.397110         1.001805         2.384674
 H         0.490422        -1.090321         0.266445
 H        -2.200892        -0.404465         0.681516
 H        -1.479127        -0.867745         2.314489
 H        -3.979938         1.387321         1.478081
 H        -3.376105         3.117307         1.195171
 H        -0.443852         2.741058         0.518858
 H        -0.550372         2.944169         3.155755
 H        -0.944554         1.551519         4.125052
 H         1.331200         1.461538         2.275939
 H         0.800311         0.034843         2.798456
