19
Iteration:  3155
 O         0.601788        -0.082991         0.117602
 C        -0.296267         0.498540         0.975848
 C        -1.678940         0.017828         1.558689
 C        -1.823413         1.493154         2.001759
 C        -3.077837         2.126172         1.223926
 O        -2.341585         1.839115        -0.015721
 C        -1.046286         1.847831         0.714275
 C        -0.797749         1.596944         3.116005
 C         0.462923         0.981754         2.349266
 H         0.105595        -0.606191        -0.496225
 H        -2.371909        -0.212706         0.685212
 H        -1.671255        -0.827868         2.279205
 H        -4.014451         1.639256         1.405459
 H        -3.183586         3.260054         1.221784
 H        -0.534534         2.898044         0.534484
 H        -0.577121         2.599394         3.535403
 H        -1.043661         0.910112         3.998577
 H         1.090840         1.808030         2.067314
 H         0.966768         0.077453         2.776653
