19
Iteration:  4901charge 0 multiplicity 1
 O         0.592752        -0.277549         0.180305
 C        -0.221207         0.517227         0.968978
 C        -1.630086         0.007198         1.440275
 C        -1.881320         1.474463         1.980711
 C        -3.075842         2.233766         1.186556
 O        -2.281967         2.085957        -0.043489
 C        -1.045902         1.874815         0.782575
 C        -0.811905         1.502003         3.195830
 C         0.348384         0.886121         2.373759
 H         0.363916        -0.026994        -0.750044
 H        -2.219164         0.037824         0.535586
 H        -1.785013        -0.973477         1.989458
 H        -3.959567         1.671487         1.340839
 H        -3.213448         3.304044         1.472123
 H        -0.481287         2.725276         0.707932
 H        -0.827055         2.591720         3.378688
 H        -1.157466         0.800704         3.912094
 H         1.255059         1.466806         2.178979
 H         0.706463        -0.087786         2.819730
