19
Iteration:  3309
 O         0.645932        -0.172195         0.120497
 C        -0.294783         0.522761         0.911352
 C        -1.612997        -0.118813         1.481419
 C        -1.840008         1.428739         1.961262
 C        -3.025234         2.035994         1.291467
 O        -2.332921         1.979054         0.043208
 C        -1.024619         1.822298         0.760316
 C        -0.863110         1.775706         3.066759
 C         0.320292         1.006626         2.364803
 H         0.112401        -0.309643        -0.733750
 H        -2.181740        -0.438597         0.601421
 H        -1.620825        -0.953199         2.220158
 H        -4.021163         1.573078         1.518167
 H        -3.138102         3.179116         1.707804
 H        -0.425276         2.838512         0.755576
 H        -0.692234         2.801198         2.942769
 H        -0.929461         1.426862         4.115013
 H         1.247932         1.475962         2.155041
 H         0.564661         0.206424         2.964377
