19
Iteration:  1116charge 0 multiplicity 1
 O         0.632847        -0.022305         0.097883
 C        -0.301339         0.586747         0.989442
 C        -1.635621        -0.060032         1.659375
 C        -1.814166         1.450062         1.980386
 C        -3.009210         2.015187         1.275048
 O        -2.412871         1.765156        -0.033469
 C        -1.121878         1.825121         0.659249
 C        -0.765971         1.779980         3.051645
 C         0.422823         1.002293         2.339267
 H         0.249369        -0.723741        -0.485691
 H        -2.464873        -0.379438         0.979355
 H        -1.734541        -0.613718         2.586224
 H        -3.885702         1.399464         1.362081
 H        -3.222703         3.111150         1.387754
 H        -0.534073         2.789971         0.380057
 H        -0.582560         2.827125         3.328046
 H        -1.031198         1.234361         4.044732
 H         1.357364         1.553053         2.087552
 H         0.870377         0.115530         2.757951
