19
Iteration:  3492charge 0 multiplicity 1
 O         0.603679        -0.317413         0.192292
 C        -0.217445         0.526099         0.955577
 C        -1.584183        -0.022186         1.508012
 C        -1.857341         1.427637         1.969202
 C        -3.047913         2.138005         1.317258
 O        -2.367945         2.042969        -0.022273
 C        -1.050070         1.912974         0.665819
 C        -0.905201         1.483012         3.087578
 C         0.391157         1.090601         2.307620
 H         0.845820        -0.077546        -0.746188
 H        -2.306399        -0.438511         0.820049
 H        -1.476084        -0.662633         2.420310
 H        -4.095432         1.677805         1.437944
 H        -3.181258         3.203746         1.602358
 H        -0.470970         2.790910         0.656693
 H        -0.706246         2.473662         3.415096
 H        -1.272279         0.805938         3.930645
 H         0.973704         2.063190         2.297862
 H         1.004253         0.266682         2.625124
