19
Iteration:  4423
 O         0.558527         0.003140        -0.007232
 C        -0.317237         0.521799         0.974999
 C        -1.703407        -0.052681         1.414775
 C        -1.749412         1.574416         1.962231
 C        -2.985524         2.176110         1.279482
 O        -2.218524         1.927496        -0.005080
 C        -0.989460         1.875253         0.696773
 C        -0.876962         1.564222         3.178695
 C         0.217500         0.756433         2.483219
 H         0.843796        -0.870497         0.409812
 H        -2.410369        -0.208848         0.610598
 H        -1.596129        -0.826131         2.166518
 H        -3.920941         1.584474         1.444374
 H        -2.909156         3.238323         1.359583
 H        -0.409592         2.899995         0.378607
 H        -0.396606         2.520568         3.490383
 H        -1.421923         0.982660         3.900394
 H         1.144049         1.339418         2.409558
 H         0.327741        -0.136733         3.050001
