19
Iteration:  4044
 O         0.698326        -0.070679         0.088660
 C        -0.251052         0.489352         0.968171
 C        -1.744765        -0.133706         1.534092
 C        -1.972697         1.380792         1.955191
 C        -2.989020         2.257559         1.261346
 O        -2.262407         2.176889        -0.022332
 C        -1.047503         1.790960         0.789304
 C        -0.918009         1.562585         3.047518
 C         0.332724         0.818074         2.311880
 H         1.330982        -0.578281         0.677913
 H        -2.388693        -0.509811         0.695177
 H        -1.612663        -0.900695         2.335540
 H        -4.036184         1.997754         0.978597
 H        -3.080942         3.288596         1.716393
 H        -0.354638         2.726596         0.797863
 H        -0.777352         2.620198         3.302350
 H        -1.023453         0.952455         3.934307
 H         1.277028         1.235647         2.166264
 H         0.608506        -0.117900         2.828911
