19
Iteration:  2350
 O         0.622365        -0.249482         0.178772
 C        -0.186851         0.578337         0.978205
 C        -1.583080        -0.063723         1.434845
 C        -1.786690         1.464809         1.975433
 C        -3.047749         1.969094         1.336775
 O        -2.445885         2.017393         0.038769
 C        -1.080222         1.903946         0.603603
 C        -0.826859         1.740204         3.066267
 C         0.389058         0.968737         2.362913
 H        -0.059848        -0.599240        -0.492915
 H        -2.417249        -0.130512         0.662408
 H        -1.504962        -0.999254         2.096181
 H        -4.007146         1.389589         1.418413
 H        -3.409291         2.982212         1.622978
 H        -0.543574         2.791103         0.600571
 H        -0.619605         2.821981         3.003603
 H        -0.991884         1.285087         4.084206
 H         1.368176         1.696999         2.360952
 H         0.670272         0.130274         2.981015
