19
Iteration:  3615charge 0 multiplicity 1
 O         0.530277        -0.135447         0.113967
 C        -0.323001         0.541829         0.976908
 C        -1.619635        -0.109811         1.519683
 C        -1.914016         1.368706         2.010104
 C        -3.041609         2.170072         1.228567
 O        -2.275584         2.058294        -0.027260
 C        -1.044832         1.850485         0.723449
 C        -0.820300         1.508724         3.181749
 C         0.380258         1.008297         2.237755
 H         1.106256        -0.755889         0.626300
 H        -2.241431        -0.442401         0.629487
 H        -1.558331        -0.843489         2.371370
 H        -4.151408         1.835336         0.880731
 H        -3.018146         3.218596         1.511677
 H        -0.516906         2.802822         0.709745
 H        -0.481445         2.519138         3.426812
 H        -0.853929         0.886517         4.115036
 H         1.007017         1.915830         1.931746
 H         1.058734         0.430898         2.779278
