19
Iteration:  2798
 O         0.705835        -0.244948         0.180620
 C        -0.296550         0.518876         0.964089
 C        -1.624099        -0.070707         1.493237
 C        -1.886969         1.431624         1.994737
 C        -3.013023         2.149141         1.329746
 O        -2.401322         1.994069        -0.027219
 C        -1.077356         1.775081         0.703058
 C        -0.826888         1.642206         3.076031
 C         0.345724         1.076738         2.301143
 H         0.592813         0.024811        -0.803287
 H        -2.387216        -0.463404         0.762639
 H        -1.400636        -0.914405         2.199912
 H        -4.120293         1.950307         1.294755
 H        -2.980880         3.108964         1.739918
 H        -0.490799         2.666879         0.662853
 H        -0.699322         2.634460         3.508024
 H        -1.081919         0.969586         3.882267
 H         1.144374         1.842002         1.989629
 H         0.936118         0.305411         2.879545
