19
Iteration:  4474
 O         0.445488        -0.178525         0.079023
 C        -0.313892         0.468102         0.983255
 C        -1.570040        -0.154528         1.473231
 C        -1.849423         1.347412         1.919051
 C        -3.001582         2.255608         1.242064
 O        -2.235600         2.237751        -0.042871
 C        -0.971281         1.853569         0.722277
 C        -0.933362         1.473660         3.137615
 C         0.394248         0.993814         2.381520
 H         0.937479        -0.907676         0.564019
 H        -2.158956        -0.542330         0.634793
 H        -1.487176        -0.873298         2.391727
 H        -3.955636         1.709882         1.097041
 H        -3.286795         3.279490         1.698020
 H        -0.439179         2.737363         0.765752
 H        -0.900161         2.513397         3.651344
 H        -1.317555         0.865828         4.036749
 H         1.206970         1.777639         2.224918
 H         0.820561         0.041823         2.949111
