19
Iteration:  4865
 O         0.483316        -0.053823        -0.005530
 C        -0.373769         0.495871         1.030983
 C        -1.659753        -0.072791         1.612995
 C        -1.802187         1.349559         1.964792
 C        -2.910201         2.083356         1.240586
 O        -2.098029         2.171994        -0.038393
 C        -0.924203         1.808095         0.804117
 C        -0.990389         1.574031         3.050711
 C         0.271914         0.916446         2.344314
 H        -0.032678        -0.808052        -0.428548
 H        -2.441385        -0.366738         0.898296
 H        -1.489380        -0.757684         2.326969
 H        -3.809702         1.461641         1.090764
 H        -3.126092         3.016037         1.624528
 H        -0.185018         2.602082         0.723762
 H        -0.952488         2.661616         3.372975
 H        -1.240656         1.240699         4.143774
 H         1.110787         1.560064         2.330607
 H         0.509026         0.046676         2.943474
