19
Iteration:  3768
 O         0.616524        -0.181872         0.108993
 C        -0.287053         0.459727         0.976451
 C        -1.716193        -0.007469         1.464273
 C        -1.859794         1.490976         1.924240
 C        -3.025557         2.180503         1.275464
 O        -2.331014         2.001624        -0.021854
 C        -1.059405         1.976789         0.687090
 C        -0.761182         1.498569         3.139104
 C         0.355809         0.897381         2.354952
 H         1.291636        -0.609237         0.735536
 H        -2.450770        -0.289440         0.683395
 H        -1.598208        -0.915545         2.152956
 H        -4.061556         1.636194         1.283330
 H        -3.157728         3.226848         1.559550
 H        -0.688389         2.971385         0.577366
 H        -0.533580         2.559429         3.399999
 H        -1.163569         1.056671         4.049835
 H         1.148955         1.680400         2.408984
 H         0.719822         0.002327         2.799306
