19
Iteration:    74charge 0 multiplicity 1
 O         0.588847        -0.170799         0.262338
 C        -0.242196         0.613743         0.976888
 C        -1.450148        -0.105943         1.490271
 C        -1.791099         1.409727         1.950922
 C        -3.100305         1.931157         1.388294
 O        -2.507687         1.808957         0.015155
 C        -1.114768         1.842542         0.573982
 C        -0.806559         1.844746         3.029285
 C         0.397943         1.110633         2.317609
 H         0.476511         0.070271        -0.646371
 H        -2.105181        -0.501497         0.764466
 H        -1.081390        -0.813416         2.238334
 H        -3.999359         1.336611         1.481888
 H        -3.225847         3.046801         1.532705
 H        -0.633577         2.817754         0.233054
 H        -0.657534         3.009020         2.955580
 H        -0.988127         1.534001         4.066706
 H         1.354824         1.702316         2.280457
 H         0.675775         0.210733         2.845862
