19
Iteration:  2576charge 0 multiplicity 1
 O         0.545703        -0.113350         0.182568
 C        -0.305131         0.621979         0.931955
 C        -1.631619        -0.018253         1.594258
 C        -1.824502         1.448533         1.972502
 C        -3.089753         1.931994         1.215943
 O        -2.321144         2.020934         0.009569
 C        -1.003983         1.894558         0.720310
 C        -0.734568         1.710851         3.021793
 C         0.390972         0.862023         2.336007
 H         0.039753        -0.511391        -0.563139
 H        -2.419027        -0.348505         0.893182
 H        -1.368615        -0.720862         2.384946
 H        -3.824669         1.074395         1.124333
 H        -3.506069         2.873585         1.541856
 H        -0.643443         2.839156         0.850243
 H        -0.568710         2.833069         3.005996
 H        -0.950776         1.305827         4.031151
 H         1.366059         1.385351         2.236279
 H         0.505113        -0.272040         2.822003
