19
Iteration:  3934charge 0 multiplicity 1
 O         0.668636        -0.219031         0.179632
 C        -0.318425         0.396895         0.903192
 C        -1.687725        -0.112490         1.395581
 C        -1.846084         1.373625         1.940987
 C        -3.051887         2.222621         1.282344
 O        -2.274872         2.181954         0.040893
 C        -0.950380         1.852412         0.763399
 C        -0.933824         1.582091         3.118765
 C         0.351772         0.945535         2.404804
 H         0.625720         0.045757        -0.761525
 H        -2.379221        -0.346927         0.534504
 H        -1.752656        -1.001451         2.090020
 H        -4.001549         1.636529         1.157042
 H        -3.175295         3.208193         1.650001
 H        -0.392370         2.741934         0.628095
 H        -0.944106         2.687885         3.326471
 H        -1.132934         1.161234         4.097670
 H         1.196970         1.780625         2.101726
 H         0.734873        -0.057689         2.857948
