19
Iteration:  4412charge 0 multiplicity 1
 O         0.514879        -0.014789         0.051593
 C        -0.256280         0.536365         1.039789
 C        -1.624570         0.015800         1.437127
 C        -1.805519         1.588318         1.922154
 C        -2.968900         2.183622         1.282890
 O        -2.341856         1.948539        -0.063159
 C        -0.939483         1.911618         0.705185
 C        -0.888194         1.516521         3.099375
 C         0.318460         0.678413         2.480882
 H         0.913515        -0.907663         0.188653
 H        -2.161996        -0.372752         0.592391
 H        -1.851215        -0.590590         2.294770
 H        -3.954474         1.642333         1.328467
 H        -3.342932         3.178976         1.495972
 H        -0.286120         2.921255         0.512246
 H        -0.663499         2.543095         3.493677
 H        -1.309224         1.092715         4.003948
 H         1.326581         1.077645         2.643845
 H         0.370715        -0.291201         2.925380
