19
Iteration:   672charge 0 multiplicity 1
 O         0.533473        -0.212977         0.051543
 C        -0.289516         0.550957         0.936863
 C        -1.532170        -0.068834         1.592271
 C        -1.891401         1.362702         2.022030
 C        -3.156156         2.019394         1.208272
 O        -2.323191         2.004529        -0.012350
 C        -1.100540         1.846270         0.765651
 C        -0.761842         1.744957         3.071468
 C         0.390871         1.035296         2.310014
 H         1.455437        -0.115099         0.433260
 H        -2.325752        -0.568621         1.092037
 H        -1.255271        -0.692398         2.421445
 H        -3.893730         1.194524         1.190006
 H        -3.465531         2.979727         1.666640
 H        -0.479189         2.723569         0.739817
 H        -0.738403         2.866613         2.991091
 H        -0.933101         1.391179         4.097826
 H         1.188222         1.762615         2.017449
 H         0.997665         0.292886         2.748958
