19
Iteration:   298charge 0 multiplicity 1
 O         0.527926        -0.083261         0.121499
 C        -0.317733         0.560222         1.040912
 C        -1.588539        -0.127856         1.659955
 C        -1.839966         1.483299         1.991799
 C        -3.121732         1.965339         1.233378
 O        -2.349437         1.945326        -0.037453
 C        -1.107169         1.805626         0.657241
 C        -0.755198         1.743371         3.060630
 C         0.466013         0.992535         2.206018
 H         1.486843        -0.085016         0.407568
 H        -2.243526        -0.617245         0.946199
 H        -1.566976        -0.836151         2.562691
 H        -3.933924         1.147668         1.201144
 H        -3.589757         2.991138         1.401112
 H        -0.534931         2.862646         0.656292
 H        -0.612447         2.798275         3.313490
 H        -0.990591         1.258757         4.092353
 H         1.128797         1.805920         1.952738
 H         1.000782         0.202471         2.827835
