19
Iteration:  4906
 O         0.619597        -0.282338         0.207787
 C        -0.244214         0.531562         0.977371
 C        -1.670747         0.046944         1.419792
 C        -1.845831         1.479968         1.963897
 C        -3.040847         2.203356         1.236996
 O        -2.311569         2.048010        -0.008587
 C        -1.007027         1.889194         0.720040
 C        -0.850450         1.501832         3.180274
 C         0.328430         0.871439         2.342590
 H         0.589672         0.001936        -0.729524
 H        -2.276695         0.033552         0.481913
 H        -2.048208        -0.897250         1.953160
 H        -4.053098         1.642802         1.278075
 H        -3.147651         3.330155         1.424561
 H        -0.422257         2.933890         0.718318
 H        -0.633559         2.507952         3.571334
 H        -1.146124         0.809960         4.034365
 H         1.246568         1.525776         2.200696
 H         0.770180        -0.042799         2.707573
