19
Iteration:  3400
 O         0.559418        -0.016851         0.056836
 C        -0.299718         0.547191         1.030055
 C        -1.663192        -0.082817         1.508268
 C        -1.857652         1.426077         1.918853
 C        -2.987705         2.089835         1.269260
 O        -2.357408         1.887304        -0.009237
 C        -1.029224         1.822026         0.717674
 C        -0.860550         1.661313         3.078875
 C         0.451329         0.955232         2.422470
 H         0.583937        -0.926020        -0.146607
 H        -2.464155        -0.393940         0.854596
 H        -1.452688        -0.764652         2.294803
 H        -4.008003         1.816804         1.432168
 H        -3.002553         3.304138         1.473959
 H        -0.456601         2.789538         0.458806
 H        -0.652259         2.793566         3.147838
 H        -1.063429         1.138661         3.995278
 H         1.248373         1.580958         2.237588
 H         0.828429         0.100103         3.053279
