19
Iteration:  1861
 O         0.646731        -0.084278         0.120129
 C        -0.288801         0.514229         0.967999
 C        -1.601458        -0.062651         1.576530
 C        -1.786593         1.483186         1.962277
 C        -3.063010         2.002644         1.301057
 O        -2.391582         1.889910        -0.017082
 C        -1.088827         1.848209         0.688103
 C        -0.779238         1.772163         3.000709
 C         0.350984         0.896744         2.379014
 H         0.370079         0.090384        -0.762540
 H        -2.198430        -0.520948         0.850989
 H        -1.688222        -0.701489         2.421665
 H        -3.852529         1.286507         1.598800
 H        -3.409035         3.142971         1.580796
 H        -0.453787         2.794429         0.679272
 H        -0.485239         2.831656         3.151003
 H        -1.243672         1.561185         4.016814
 H         1.211365         1.610581         2.366325
 H         0.588924        -0.052221         2.849776
