19
Iteration:  2009
 O         0.617012        -0.057134         0.089831
 C        -0.220114         0.543809         1.002288
 C        -1.596434        -0.083093         1.560522
 C        -1.818756         1.405695         1.978234
 C        -2.956558         2.146833         1.342172
 O        -2.431121         1.808211         0.000920
 C        -1.077836         1.782681         0.665866
 C        -0.857011         1.707057         3.004810
 C         0.387278         0.982651         2.407852
 H         0.147852         0.012316        -0.712711
 H        -2.335013        -0.427220         0.801135
 H        -1.503117        -0.806090         2.449629
 H        -4.136744         1.906905         1.366355
 H        -3.028939         3.291666         1.286725
 H        -0.537071         2.800978         0.562381
 H        -0.778902         2.793523         3.012279
 H        -1.105394         1.247644         3.963532
 H         1.185485         1.611342         2.254462
 H         0.630379         0.107285         2.938884
