19
Iteration:  1332
 O         0.578255        -0.146957         0.112022
 C        -0.241638         0.608467         0.953854
 C        -1.591937        -0.063754         1.570541
 C        -1.783067         1.484317         1.936332
 C        -2.980003         2.060422         1.367084
 O        -2.442888         1.805497        -0.063330
 C        -1.127267         1.841533         0.562875
 C        -0.840776         1.664683         3.150766
 C         0.438603         1.123862         2.380483
 H         0.356654        -1.060917         0.274021
 H        -2.287059        -0.317659         0.736651
 H        -1.453334        -0.804510         2.332034
 H        -4.084602         1.757715         1.226360
 H        -3.160210         3.140315         1.500236
 H        -0.614885         2.787739         0.377890
 H        -0.678639         2.652110         3.514999
 H        -1.132081         0.929203         3.920199
 H         1.281425         1.867969         2.366403
 H         0.954207         0.268108         2.815853
