19
Iteration:  4527charge 0 multiplicity 1
 O         0.515716        -0.029748         0.126934
 C        -0.325735         0.507152         1.083940
 C        -1.668309        -0.019688         1.387638
 C        -1.881154         1.445851         1.994404
 C        -3.000835         2.197881         1.228309
 O        -2.290999         2.049096        -0.046865
 C        -1.008289         1.868282         0.677876
 C        -0.752962         1.519032         3.129986
 C         0.349715         0.766265         2.408593
 H         0.936089        -0.884599         0.441020
 H        -2.209462        -0.106915         0.461322
 H        -1.866699        -0.954551         2.023999
 H        -4.005944         1.879773         1.077290
 H        -3.054780         3.236404         1.567176
 H        -0.455787         2.825448         0.498591
 H        -0.403265         2.533401         3.456854
 H        -1.163650         0.989457         4.016606
 H         1.237960         1.391381         2.329479
 H         0.672994        -0.236394         2.827575
