19
Iteration:  4748
 O         0.454595        -0.265287         0.180686
 C        -0.351572         0.584955         0.968939
 C        -1.593018        -0.073089         1.360346
 C        -1.878066         1.355451         1.977027
 C        -2.980121         2.115787         1.228415
 O        -2.178453         2.177979        -0.002284
 C        -0.995173         1.934689         0.777326
 C        -0.884598         1.510871         3.156694
 C         0.279749         0.892793         2.367577
 H         0.988839         0.166314        -0.545222
 H        -2.268929        -0.548527         0.558829
 H        -1.307642        -0.882082         2.192701
 H        -3.948165         1.706426         0.944290
 H        -3.024525         3.206262         1.643376
 H        -0.134689         2.810366         1.005461
 H        -0.723082         2.665662         3.276882
 H        -1.185676         1.165090         4.182898
 H         1.010778         1.699476         2.079097
 H         0.837375        -0.059676         2.687545
