19
Iteration:  1434
 O         0.490153        -0.245660         0.108110
 C        -0.297919         0.590790         1.022985
 C        -1.585341         0.021805         1.604571
 C        -1.836319         1.488923         1.917039
 C        -3.038423         2.025884         1.200226
 O        -2.338898         1.861696        -0.020562
 C        -1.028347         1.856634         0.653318
 C        -0.800053         1.594884         3.210302
 C         0.429409         1.123759         2.372763
 H         0.288476         0.179466        -0.778657
 H        -2.002906        -0.251606         0.680004
 H        -1.647082        -0.760078         2.333312
 H        -3.806296         1.236962         1.375942
 H        -3.278260         3.100968         1.309177
 H        -0.497723         2.719735         0.351671
 H        -0.553736         2.555303         3.575832
 H        -1.198744         0.976177         4.012768
 H         1.075276         2.037750         2.244678
 H         0.918610         0.300887         2.636874
