19
Iteration:  2965charge 0 multiplicity 1
 O         0.569044        -0.211779         0.060207
 C        -0.198390         0.527227         0.980480
 C        -1.529748        -0.028742         1.510078
 C        -1.809869         1.495275         2.055341
 C        -3.051291         2.048268         1.284198
 O        -2.364688         1.991598         0.003332
 C        -1.056337         1.825179         0.667775
 C        -0.883423         1.760922         3.159048
 C         0.387487         0.934416         2.357333
 H        -0.019386        -0.417680        -0.755121
 H        -2.244864        -0.161558         0.678789
 H        -1.562928        -0.924045         2.258165
 H        -3.793149         1.231397         1.187225
 H        -3.628582         2.952113         1.370110
 H        -0.550962         2.754132         0.456257
 H        -0.685769         2.784335         3.372399
 H        -1.183034         1.208540         4.022330
 H         1.317034         1.632616         2.195569
 H         0.622581         0.105766         2.943162
