19
Iteration:  3965
 O         0.507344        -0.133338         0.131540
 C        -0.314938         0.553583         0.947656
 C        -1.631463        -0.002427         1.512447
 C        -1.846307         1.405940         1.964938
 C        -3.016230         2.094879         1.177236
 O        -2.219388         2.154876        -0.075722
 C        -0.973916         1.925518         0.737711
 C        -0.882152         1.402867         3.196521
 C         0.362840         0.956559         2.402083
 H         0.121203        -0.990264        -0.149597
 H        -2.280999        -0.282891         0.657888
 H        -1.601875        -0.812573         2.297043
 H        -3.862394         1.492795         0.972910
 H        -3.210968         3.196928         1.414784
 H        -0.220032         2.853415         0.770716
 H        -0.837404         2.419344         3.710451
 H        -1.201524         0.647252         3.892843
 H         1.290874         1.587285         2.389906
 H         0.660714        -0.093981         2.796090
