19
Iteration:  1195charge 0 multiplicity 1
 O         0.594971        -0.171280         0.107615
 C        -0.299394         0.448208         0.992502
 C        -1.600210        -0.054881         1.683042
 C        -1.799357         1.453417         1.985519
 C        -3.069961         2.010489         1.247679
 O        -2.404489         1.937143        -0.026263
 C        -1.141056         1.805992         0.639622
 C        -0.823940         1.653267         3.113213
 C         0.417424         1.197490         2.228750
 H         1.576778        -0.187071         0.360129
 H        -2.348470        -0.317844         0.869922
 H        -1.554529        -0.823254         2.528709
 H        -4.051946         1.671010         1.251877
 H        -3.212983         3.111512         1.305520
 H        -0.440264         2.724949         0.737049
 H        -0.665324         2.686726         3.612343
 H        -0.874831         0.806795         3.818527
 H         1.087620         1.888754         1.702321
 H         1.059517         0.404247         2.736454
