19
Iteration:  1575charge 0 multiplicity 1
 O         0.479550        -0.150097         0.073414
 C        -0.241820         0.501534         1.057235
 C        -1.554963        -0.088969         1.577123
 C        -1.799369         1.442159         1.957679
 C        -3.032213         2.106531         1.206558
 O        -2.316249         1.875973         0.007206
 C        -1.005476         1.794797         0.684057
 C        -0.920405         1.684204         3.159901
 C         0.399468         1.158339         2.323168
 H        -0.111147        -0.342308        -0.704108
 H        -2.318878        -0.411325         0.878517
 H        -1.509519        -0.820388         2.365245
 H        -3.920087         1.381725         1.266999
 H        -3.182385         3.092250         1.433780
 H        -0.276766         2.650687         0.559191
 H        -0.641359         2.693002         3.429244
 H        -1.053909         1.088245         4.116091
 H         1.219880         1.925825         1.915451
 H         0.874160         0.334589         2.775643
