19
Iteration:   613charge 0 multiplicity 1
 O         0.565535        -0.327984         0.064744
 C        -0.223200         0.595285         0.931279
 C        -1.430885        -0.018166         1.489905
 C        -1.790819         1.442746         1.974745
 C        -3.015614         2.142929         1.312788
 O        -2.464771         1.778702         0.000338
 C        -1.095273         1.886515         0.651375
 C        -0.903368         1.677911         3.156603
 C         0.325233         1.160995         2.414825
 H         1.116175         0.041890        -0.597843
 H        -2.021005        -0.261099         0.558932
 H        -1.320457        -0.870565         2.239206
 H        -4.066596         1.802277         1.544838
 H        -3.027792         3.234996         1.684370
 H        -0.604922         2.986422         0.606263
 H        -0.862693         2.658268         3.579306
 H        -1.132275         1.053831         4.029090
 H         1.100597         1.807213         2.306050
 H         0.643166         0.055621         2.740051
