19
Iteration:   690charge 0 multiplicity 1
 O         0.437483        -0.190574        -0.015837
 C        -0.185876         0.520108         1.014108
 C        -1.517028        -0.113507         1.598985
 C        -1.808988         1.451463         1.962724
 C        -3.042815         1.960612         1.317069
 O        -2.364089         1.928553         0.011525
 C        -1.070183         1.871681         0.666319
 C        -0.939375         1.783095         3.044563
 C         0.412624         1.099587         2.367577
 H         1.399340        -0.407247         0.040537
 H        -1.942510        -0.408619         0.588283
 H        -1.541897        -0.835332         2.477171
 H        -4.037863         1.454408         1.307292
 H        -3.176681         3.047135         1.599702
 H        -0.410557         2.885719         0.617168
 H        -0.763256         2.820125         3.243132
 H        -1.158722         1.225794         3.975786
 H         1.298200         1.697118         2.366871
 H         0.803664         0.225599         3.101264
