19
Iteration:  4989
 O         0.450988        -0.073305         0.064678
 C        -0.333052         0.534235         1.045364
 C        -1.649373        -0.031583         1.401645
 C        -1.867591         1.406506         1.988813
 C        -2.926822         2.045681         1.190395
 O        -2.128860         2.107492        -0.004281
 C        -0.940046         1.870495         0.786227
 C        -0.901784         1.578913         3.178643
 C         0.282180         0.868031         2.423576
 H        -0.057897        -0.800971        -0.332839
 H        -2.324708        -0.090992         0.596200
 H        -1.579759        -0.809156         2.178620
 H        -3.817426         1.526250         1.051226
 H        -3.176863         3.043397         1.362431
 H        -0.203147         2.635747         0.482895
 H        -0.733115         2.706189         3.369290
 H        -1.053462         0.992700         4.116052
 H         1.103561         1.486057         2.101929
 H         0.566971        -0.102433         2.848078
