19
Iteration:  2103charge 0 multiplicity 1
 O         0.654723        -0.203853         0.144527
 C        -0.259894         0.548935         0.943539
 C        -1.543125        -0.152599         1.540767
 C        -1.840878         1.356592         1.932389
 C        -3.105688         2.079953         1.306299
 O        -2.369628         1.998705         0.029790
 C        -1.082254         1.848019         0.683574
 C        -0.856564         1.795325         3.063679
 C         0.388423         1.008440         2.330788
 H         0.137299        -0.406825        -0.706236
 H        -2.330520        -0.484520         0.874769
 H        -1.406931        -0.801882         2.358234
 H        -4.010000         1.578488         1.427143
 H        -3.207458         3.104186         1.657461
 H        -0.630492         2.778363         0.649497
 H        -0.815767         2.882667         2.932578
 H        -0.790259         1.482668         4.115868
 H         1.339873         1.662865         2.158164
 H         0.591203         0.059022         3.043716
