19
Iteration:  3021charge 0 multiplicity 1
 O         0.587877        -0.101266         0.065714
 C        -0.264042         0.483551         0.968569
 C        -1.624082        -0.105830         1.539022
 C        -1.809338         1.466607         1.960650
 C        -3.018628         2.176167         1.304217
 O        -2.334019         1.874578        -0.034857
 C        -1.057041         1.794093         0.751734
 C        -0.839815         1.635265         3.138225
 C         0.357169         1.047461         2.338618
 H         0.115873        -0.430848        -0.689926
 H        -2.308608        -0.422543         0.734659
 H        -1.665248        -0.761806         2.504653
 H        -4.039003         1.835114         1.160888
 H        -2.995699         3.245623         1.533957
 H        -0.540012         2.712606         0.599364
 H        -0.596016         2.591595         3.541847
 H        -1.106693         1.017167         4.007388
 H         1.051120         1.912549         2.043682
 H         0.930362         0.346749         2.968674
