19
Iteration:  2390charge 0 multiplicity 1
 O         0.715586        -0.100674         0.177217
 C        -0.374246         0.469459         0.910828
 C        -1.656026        -0.047931         1.611802
 C        -1.840034         1.400372         2.025481
 C        -2.971917         2.250160         1.257918
 O        -2.410885         1.889317         0.001184
 C        -1.102342         1.785517         0.589292
 C        -0.821403         1.542420         3.192009
 C         0.401411         1.088064         2.254933
 H         0.476015        -0.501243        -0.646148
 H        -2.382081        -0.259310         0.823106
 H        -1.548328        -0.850049         2.324578
 H        -3.833459         1.657991         1.331590
 H        -3.021427         3.381085         1.461079
 H        -0.647972         2.898277         0.409521
 H        -0.716310         2.556417         3.627052
 H        -1.039422         0.828497         4.019458
 H         1.006317         1.876812         1.977993
 H         1.041903         0.324612         2.626879
