19
Iteration:  3474charge 0 multiplicity 1
 O         0.496520        -0.372277         0.169995
 C        -0.287667         0.614382         0.925933
 C        -1.538760        -0.052761         1.387380
 C        -1.801303         1.450776         1.971399
 C        -3.041421         2.103229         1.275112
 O        -2.362705         1.975312         0.015338
 C        -1.066125         1.929689         0.676577
 C        -0.860054         1.596044         3.201498
 C         0.399418         1.069172         2.357072
 H         1.048750         0.257702        -0.353540
 H        -2.121668        -0.290876         0.480387
 H        -1.442179        -0.896465         2.126578
 H        -4.002721         1.559728         1.192242
 H        -3.168820         3.107430         1.651844
 H        -0.475507         2.905389         0.649357
 H        -0.901908         2.614138         3.606212
 H        -1.083776         0.876044         3.982067
 H         1.294508         1.754451         2.062045
 H         0.891522         0.320805         3.011417
