19
Iteration:  4420charge 0 multiplicity 1
 O         0.543662         0.001160         0.010965
 C        -0.295133         0.522760         0.983074
 C        -1.682362        -0.041928         1.414056
 C        -1.761325         1.590204         1.967825
 C        -2.990007         2.169414         1.285436
 O        -2.246224         1.930353        -0.023484
 C        -0.968628         1.902852         0.696227
 C        -0.875206         1.546278         3.148594
 C         0.232215         0.740035         2.479395
 H         0.856360        -0.864099         0.346044
 H        -2.317743        -0.285778         0.561272
 H        -1.686425        -0.795131         2.291578
 H        -3.875346         1.595136         1.439437
 H        -2.986115         3.288305         1.402758
 H        -0.481673         2.813366         0.397602
 H        -0.398995         2.541080         3.470985
 H        -1.487196         0.980889         3.894508
 H         1.236536         1.280214         2.459049
 H         0.303817        -0.212282         3.145411
