19
Iteration:  2922
 O         0.693884        -0.198088         0.225708
 C        -0.327002         0.518712         1.004445
 C        -1.623373        -0.115787         1.552623
 C        -1.875508         1.450430         1.965981
 C        -3.055154         2.160975         1.292690
 O        -2.377491         1.970427         0.006163
 C        -1.104122         1.864618         0.693467
 C        -0.849685         1.638209         3.090650
 C         0.411523         0.983771         2.183530
 H         0.613119         0.261777        -0.676673
 H        -2.188886        -0.406118         0.654958
 H        -1.489781        -0.930016         2.351967
 H        -4.023012         1.741457         1.354541
 H        -3.021173         3.149757         1.652599
 H        -0.495665         2.647826         0.511255
 H        -0.621963         2.664849         3.374496
 H        -0.969708         1.046810         4.017756
 H         1.247795         1.801342         1.993713
 H         0.799148         0.040907         2.573338
