19
Iteration:   687charge 0 multiplicity 1
 O         0.457728        -0.206554        -0.022908
 C        -0.200099         0.522846         1.016852
 C        -1.510929        -0.101978         1.610462
 C        -1.825174         1.448757         1.954877
 C        -3.062877         1.955004         1.315461
 O        -2.359005         1.948808         0.017177
 C        -1.058029         1.868568         0.695275
 C        -0.930871         1.763252         3.035191
 C         0.402962         1.085505         2.350602
 H         1.432840        -0.385465         0.089538
 H        -1.965003        -0.399170         0.640031
 H        -1.458157        -0.791452         2.476018
 H        -4.038587         1.517966         1.252905
 H        -3.259067         3.008076         1.502368
 H        -0.523171         2.818624         0.708324
 H        -0.663099         2.821341         3.180316
 H        -1.117872         1.336443         4.051009
 H         1.316707         1.821801         2.314885
 H         0.740804         0.259107         3.036461
