19
Iteration:   898
 O         0.577037        -0.235668         0.095659
 C        -0.205360         0.529967         0.950422
 C        -1.564285        -0.067864         1.633121
 C        -1.808998         1.410256         1.966505
 C        -3.091172         1.994861         1.363222
 O        -2.449816         1.929043        -0.004825
 C        -1.122892         1.864102         0.678215
 C        -0.833820         1.786288         2.991560
 C         0.405908         1.098108         2.242042
 H         1.347366        -0.305265         0.678294
 H        -2.061768        -0.341250         0.717909
 H        -1.388046        -0.942565         2.383147
 H        -3.950554         1.319060         1.495259
 H        -3.302335         3.085914         1.532014
 H        -0.772635         2.875951         0.675476
 H        -0.553396         2.811262         3.076820
 H        -0.945143         1.400056         4.028461
 H         1.217707         1.818710         2.079601
 H         0.846078         0.182292         2.882778
