19
Iteration:   327
 O         0.597147        -0.277355         0.104329
 C        -0.193688         0.632341         0.928267
 C        -1.540094        -0.107462         1.510210
 C        -1.864359         1.352758         1.984555
 C        -3.077679         2.030575         1.383665
 O        -2.437339         1.916672         0.055812
 C        -1.078279         1.836543         0.561411
 C        -0.882494         1.788155         3.064348
 C         0.391767         1.080778         2.354462
 H         1.537239         0.008080        -0.102153
 H        -2.198179        -0.452762         0.651308
 H        -1.424272        -0.647584         2.408668
 H        -4.032625         1.596350         1.371213
 H        -3.023927         3.071386         1.614454
 H        -0.574080         2.771508         0.444163
 H        -0.910446         2.916932         2.987073
 H        -0.988287         1.538207         4.071117
 H         1.202729         1.804231         2.454851
 H         0.620299         0.180087         3.003734
