19
Iteration:  4764
 O         0.534445        -0.220684         0.166105
 C        -0.288152         0.438575         1.020495
 C        -1.693667        -0.128193         1.454884
 C        -1.909257         1.355437         1.902483
 C        -2.976445         2.225092         1.277179
 O        -2.213932         2.204830         0.001790
 C        -1.017483         1.881507         0.772261
 C        -0.923978         1.508764         3.039234
 C         0.394596         0.941252         2.330947
 H         1.235832         0.363268        -0.131207
 H        -2.279392        -0.317166         0.599443
 H        -1.805498        -0.916861         2.139348
 H        -3.978101         1.756130         1.192890
 H        -3.038755         3.170895         1.699529
 H        -0.539012         2.818104         0.906877
 H        -0.786763         2.527030         3.245803
 H        -1.133654         0.818343         3.828191
 H         1.245401         1.637551         2.262705
 H         0.757973         0.117763         2.911874
