19
Iteration:  1937
 O         0.547863        -0.257544         0.140520
 C        -0.245385         0.562944         0.952833
 C        -1.519867        -0.015065         1.529330
 C        -1.766326         1.466354         1.948340
 C        -3.099877         2.037687         1.235544
 O        -2.398273         1.930456        -0.015510
 C        -1.099293         1.915416         0.631119
 C        -0.841599         1.588212         3.186747
 C         0.443689         1.172164         2.389057
 H        -0.074581        -0.791132        -0.396975
 H        -2.191320        -0.335896         0.765744
 H        -1.328578        -0.849651         2.185905
 H        -3.843886         1.340295         1.327380
 H        -3.518249         2.945542         1.595523
 H        -0.513211         2.818848         0.541809
 H        -0.614131         2.636852         3.473958
 H        -0.922665         0.883968         4.065713
 H         1.103873         2.018796         1.989213
 H         0.889129         0.226830         2.888421
