19
Iteration:  4757charge 0 multiplicity 1
 O         0.483496        -0.248498         0.203298
 C        -0.316517         0.549575         0.991215
 C        -1.659616        -0.112923         1.406356
 C        -1.908272         1.311339         1.922369
 C        -2.953440         2.182309         1.242785
 O        -2.201806         2.204131        -0.004511
 C        -0.981317         1.892635         0.826228
 C        -0.898617         1.513055         3.028338
 C         0.346670         0.889970         2.332751
 H         1.061238         0.432745        -0.250619
 H        -2.316106        -0.458380         0.567588
 H        -1.510977        -0.870425         2.209881
 H        -3.965285         1.715102         1.237449
 H        -3.097810         3.265824         1.667786
 H        -0.483132         2.881514         0.886519
 H        -0.741197         2.582474         3.311675
 H        -1.114780         1.001840         4.016052
 H         1.046986         1.705089         2.177520
 H         0.899657         0.129844         2.906568
