19
Iteration:  1226charge 0 multiplicity 1
 O         0.531257        -0.216105         0.187911
 C        -0.271589         0.581034         0.991437
 C        -1.461984        -0.077036         1.474427
 C        -1.800312         1.456387         1.940505
 C        -3.064007         2.095074         1.354438
 O        -2.445833         1.818067         0.052913
 C        -1.111334         1.829912         0.586496
 C        -0.853895         1.720030         3.077252
 C         0.412181         1.074869         2.318829
 H         1.435716         0.066819         0.086580
 H        -2.163888        -0.297432         0.620442
 H        -1.429678        -0.891493         2.194818
 H        -4.026411         1.631785         1.470926
 H        -3.034707         3.175350         1.253756
 H        -0.606412         2.836596         0.471212
 H        -0.779487         2.836957         3.306877
 H        -1.073590         1.220028         4.095459
 H         1.174745         1.873681         1.905773
 H         0.774129         0.133695         2.736642
