19
Iteration:  4113
 O         0.440071        -0.210427         0.081453
 C        -0.298332         0.557162         0.977236
 C        -1.622260        -0.004175         1.491524
 C        -1.863467         1.453936         1.983121
 C        -2.987719         2.145195         1.164059
 O        -2.194908         2.066785        -0.104112
 C        -0.990074         1.946008         0.801887
 C        -0.868995         1.482980         3.175156
 C         0.306146         0.844347         2.370266
 H         1.384999         0.159472         0.068027
 H        -2.410297        -0.320841         0.838897
 H        -1.462399        -0.699893         2.321923
 H        -4.021328         1.557853         1.253158
 H        -3.255178         3.101616         1.513244
 H        -0.435075         2.871360         0.820896
 H        -0.616250         2.375251         3.657802
 H        -1.347995         0.800738         3.904754
 H         1.148344         1.608998         2.391869
 H         0.820552         0.129717         2.934341
