19
Iteration:  3703
 O         0.507605        -0.132418         0.063872
 C        -0.288534         0.544372         1.033454
 C        -1.646169        -0.027525         1.589443
 C        -1.850864         1.476006         2.020033
 C        -3.030065         2.115716         1.134000
 O        -2.226398         2.014439        -0.014905
 C        -1.034524         1.829478         0.776009
 C        -0.921774         1.584013         3.132817
 C         0.441276         0.881938         2.331406
 H         0.181293        -0.073415        -0.859155
 H        -2.336176        -0.367622         0.780184
 H        -1.488425        -0.904033         2.296037
 H        -3.936725         1.316892         1.153439
 H        -3.368001         3.133893         1.397174
 H        -0.252861         2.819391         0.734852
 H        -0.537668         2.614053         3.315953
 H        -1.026211         1.121932         4.104043
 H         1.202525         1.679773         2.216823
 H         0.866439         0.091723         2.786196
