19
Iteration:  1217charge 0 multiplicity 1
 O         0.547861        -0.199791         0.190395
 C        -0.272052         0.569155         0.971646
 C        -1.601583        -0.063273         1.519620
 C        -1.823631         1.453824         1.970822
 C        -3.046573         2.132671         1.355428
 O        -2.430687         1.809774        -0.013200
 C        -1.122295         1.828686         0.616212
 C        -0.851613         1.627509         3.084707
 C         0.456179         1.136810         2.261831
 H         1.460741         0.024688         0.302481
 H        -1.982895        -0.607217         0.635271
 H        -1.306524        -0.800607         2.334903
 H        -3.958589         1.644574         1.304021
 H        -3.285263         3.182942         1.617380
 H        -0.476112         2.778685         0.476973
 H        -0.594006         2.749108         3.098567
 H        -0.997234         1.168764         4.079940
 H         1.174598         1.981410         2.095903
 H         1.049995         0.275379         2.767579
