19
Iteration:  3409
 O         0.577659         0.044242         0.033151
 C        -0.342201         0.464006         0.999876
 C        -1.611059        -0.084294         1.600383
 C        -1.834435         1.400674         1.988637
 C        -2.989842         2.133801         1.282494
 O        -2.327599         1.912995        -0.059663
 C        -1.085112         1.817035         0.646794
 C        -0.816580         1.663407         3.093611
 C         0.379948         0.922852         2.399280
 H         0.635918        -0.890756         0.133636
 H        -2.281299        -0.497332         0.855963
 H        -1.587091        -0.721175         2.500295
 H        -3.943802         1.620372         1.125032
 H        -3.064001         3.269864         1.550312
 H        -0.507189         2.852216         0.623429
 H        -0.602434         2.739572         3.201140
 H        -1.175807         1.386703         4.078721
 H         1.224611         1.530738         2.331067
 H         0.725850        -0.020577         2.796580
