19
Iteration:  3144
 O         0.569740        -0.129983         0.021685
 C        -0.251278         0.597192         1.008369
 C        -1.630911        -0.037151         1.577922
 C        -1.864850         1.502780         1.962103
 C        -2.998579         2.146435         1.250211
 O        -2.331558         1.781637        -0.050960
 C        -1.065833         1.877180         0.783555
 C        -0.856810         1.569532         3.118194
 C         0.447322         1.045256         2.330536
 H         0.014602        -0.745594        -0.426721
 H        -2.484164        -0.262599         0.857219
 H        -1.698154        -0.683296         2.486024
 H        -4.009219         1.801754         1.237475
 H        -2.984454         3.274395         1.485917
 H        -0.527148         2.940427         0.655352
 H        -0.727350         2.588420         3.544896
 H        -1.156057         0.838620         3.961006
 H         1.328112         1.651938         2.329684
 H         0.923601         0.143466         2.873077
