19
Iteration:   647
 O         0.576239        -0.141654         0.190379
 C        -0.332822         0.503424         1.067197
 C        -1.612155        -0.062583         1.608545
 C        -1.815248         1.462606         1.908656
 C        -3.094371         1.959304         1.269177
 O        -2.395062         2.020502        -0.033615
 C        -1.078135         1.785572         0.648636
 C        -0.712028         1.647704         3.072314
 C         0.358382         1.087212         2.207754
 H         1.366130         0.388544         0.355094
 H        -2.401984        -0.237822         0.810276
 H        -1.631485        -0.912067         2.349020
 H        -3.878214         1.153134         1.399765
 H        -3.380719         2.987105         1.686324
 H        -0.397650         2.762043         0.681306
 H        -0.533052         2.682857         3.282333
 H        -0.982320         1.030744         3.934314
 H         1.146459         1.663912         1.894284
 H         1.057202         0.211866         2.620596
