19
Iteration:  2586charge 0 multiplicity 1
 O         0.512256        -0.094052         0.129484
 C        -0.330859         0.509301         1.042648
 C        -1.528339        -0.098190         1.535724
 C        -1.823389         1.436329         1.930909
 C        -3.074623         1.937850         1.280754
 O        -2.310062         2.052268        -0.072897
 C        -1.077883         1.992242         0.712117
 C        -0.734072         1.764864         3.070261
 C         0.380368         0.867199         2.392155
 H        -0.038543        -0.673483        -0.498237
 H        -2.291934        -0.457665         0.841856
 H        -1.426006        -0.830575         2.303101
 H        -3.960487         1.174973         1.209719
 H        -3.528114         2.778526         1.640056
 H        -0.449267         2.838714         0.593111
 H        -0.527331         2.867857         3.020014
 H        -0.911713         1.450798         4.106340
 H         1.408081         1.216390         2.246845
 H         0.593314        -0.209114         2.968493
