19
Iteration:  2953
 O         0.607157        -0.269734         0.093080
 C        -0.260609         0.507620         0.982659
 C        -1.595376        -0.039310         1.456334
 C        -1.822893         1.453986         1.935850
 C        -3.080057         2.004602         1.319278
 O        -2.403856         1.986855         0.018149
 C        -1.020164         1.923839         0.624523
 C        -0.836917         1.744657         3.178199
 C         0.396785         1.004416         2.413719
 H         0.227918        -0.094479        -0.762505
 H        -2.227740        -0.309746         0.582105
 H        -1.560846        -0.930293         2.187971
 H        -4.037160         1.386919         1.414484
 H        -3.199305         3.019305         1.768731
 H        -0.328781         2.710743         0.251786
 H        -0.644157         2.791697         3.318039
 H        -1.020283         1.356064         4.138734
 H         1.324184         1.670880         2.468073
 H         0.679252         0.115680         2.840069
