19
Iteration:  2413charge 0 multiplicity 1
 O         0.573557        -0.053333         0.099820
 C        -0.270899         0.456824         1.062536
 C        -1.683446        -0.109309         1.583280
 C        -1.840724         1.458717         1.961979
 C        -3.007967         2.159216         1.290862
 O        -2.305091         1.870074        -0.016659
 C        -1.016669         1.762735         0.681659
 C        -0.844762         1.586205         3.076988
 C         0.375793         1.078727         2.288022
 H         0.000441         0.018763        -0.698776
 H        -2.446619        -0.381369         0.799630
 H        -1.619897        -0.820178         2.445422
 H        -3.919042         1.662215         1.468838
 H        -2.823747         3.284837         1.501328
 H        -0.516021         2.885667         0.413625
 H        -0.581579         2.596339         3.497890
 H        -1.062333         0.927285         3.974257
 H         0.955592         1.944031         2.035533
 H         1.019374         0.480895         2.801018
