19
Iteration:  3361
 O         0.605692        -0.268053         0.229484
 C        -0.285138         0.572390         0.891605
 C        -1.595821        -0.025571         1.533404
 C        -1.811654         1.453410         1.997399
 C        -3.061680         2.046848         1.263643
 O        -2.383644         2.005533        -0.040977
 C        -1.030796         1.933836         0.655914
 C        -0.835580         1.546438         3.157791
 C         0.400247         1.068155         2.300479
 H         0.029726        -0.308537        -0.617399
 H        -2.339638        -0.477519         0.822697
 H        -1.289692        -0.772421         2.319208
 H        -4.067069         1.486742         1.311385
 H        -3.187018         3.035823         1.529298
 H        -0.478684         2.828316         0.514881
 H        -0.787869         2.525362         3.577341
 H        -1.153641         0.818902         3.963192
 H         1.145015         1.972045         2.073893
 H         1.058581         0.336198         2.800980
