19
Iteration:  3576charge 0 multiplicity 1
 O         0.487463        -0.056949        -0.017942
 C        -0.251807         0.518349         1.028116
 C        -1.576215         0.050111         1.499615
 C        -1.825064         1.445759         2.023623
 C        -3.018502         2.009240         1.265759
 O        -2.342083         1.954688        -0.074949
 C        -0.955442         1.911399         0.568101
 C        -0.856659         1.607988         3.210400
 C         0.344913         0.885054         2.498703
 H         0.312171        -0.990593        -0.042854
 H        -2.228764        -0.265623         0.705371
 H        -1.625328        -0.727402         2.255649
 H        -3.870198         1.453812         1.393926
 H        -3.173369         3.109261         1.532721
 H        -0.265447         2.896824         0.442867
 H        -0.663431         2.698976         3.486484
 H        -1.266910         1.167650         4.105109
 H         1.146888         1.654236         2.403836
 H         0.808170        -0.098871         2.974806
