19
Iteration:  3096charge 0 multiplicity 1
 O         0.620433        -0.143614         0.100985
 C        -0.274495         0.468818         1.022099
 C        -1.676612        -0.047788         1.577427
 C        -1.859494         1.409514         1.949574
 C        -3.047156         2.013302         1.292084
 O        -2.294978         2.037344         0.006877
 C        -1.054459         1.803492         0.686982
 C        -0.803702         1.727544         3.077005
 C         0.376852         1.008418         2.315474
 H         0.063565        -0.369184        -0.733304
 H        -2.268367        -0.415746         0.732857
 H        -1.652256        -0.796317         2.404931
 H        -3.981288         1.262802         1.378351
 H        -3.411864         3.089696         1.423818
 H        -0.519418         2.929813         0.726515
 H        -0.719593         2.762629         3.341372
 H        -0.899093         1.155922         3.964729
 H         1.248021         1.641608         2.054291
 H         0.842337         0.232169         2.847214
