19
Iteration:   665
 O         0.560115        -0.166700         0.143738
 C        -0.353250         0.528895         0.892058
 C        -1.598899        -0.142139         1.610632
 C        -1.874149         1.385131         2.086060
 C        -3.128495         1.982814         1.188766
 O        -2.318902         2.029989        -0.025468
 C        -1.144332         1.877426         0.721811
 C        -0.726415         1.752598         3.077981
 C         0.420945         1.028851         2.250655
 H         1.469310        -0.037844         0.394714
 H        -2.327520        -0.598562         0.923250
 H        -1.311203        -0.752577         2.483795
 H        -3.946542         1.287614         1.067497
 H        -3.515638         2.917126         1.576591
 H        -0.436358         2.730291         0.632964
 H        -0.652439         2.848400         3.231284
 H        -0.788857         1.257937         4.062125
 H         1.307031         1.736893         1.947948
 H         1.022323         0.226499         2.759799
