19
Iteration:  1610
 O         0.683793        -0.114716         0.186127
 C        -0.316350         0.532998         0.988898
 C        -1.611851        -0.046144         1.563253
 C        -1.809520         1.400189         1.958714
 C        -3.026703         2.101981         1.290010
 O        -2.445069         1.897341        -0.008911
 C        -1.075012         1.821506         0.682540
 C        -0.756641         1.759446         3.049375
 C         0.383761         0.965677         2.319327
 H         0.043556        -0.603955        -0.414686
 H        -2.276175        -0.372385         0.725873
 H        -1.413428        -0.780107         2.339363
 H        -4.068215         1.652104         1.137658
 H        -3.287185         3.094881         1.505223
 H        -0.652264         2.818406         0.497699
 H        -0.714661         2.837482         2.979493
 H        -1.027637         1.466104         4.094113
 H         1.482479         1.397947         2.319101
 H         0.481931        -0.068949         2.672653
