19
Iteration:  3832
 O         0.489141        -0.203868         0.066488
 C        -0.247997         0.526545         1.019738
 C        -1.560167        -0.075281         1.482863
 C        -1.878652         1.354507         2.027063
 C        -2.998175         2.146835         1.214319
 O        -2.211833         2.072199        -0.070682
 C        -1.004483         1.872118         0.821032
 C        -0.955281         1.590839         3.150589
 C         0.372144         0.978677         2.355117
 H        -0.128038        -0.211455        -0.701231
 H        -2.143158        -0.310346         0.587627
 H        -1.542793        -0.901957         2.231710
 H        -3.977349         1.871535         0.984146
 H        -3.090610         3.197021         1.538669
 H        -0.435983         2.797399         0.941928
 H        -0.678718         2.644437         3.325568
 H        -1.290702         1.111153         4.087926
 H         1.295836         1.643008         2.220232
 H         0.665943        -0.074621         2.914577
