19
Iteration:   250charge 0 multiplicity 1
 O         0.447187        -0.069241         0.070215
 C        -0.283958         0.647478         1.004894
 C        -1.415087        -0.079527         1.563118
 C        -1.814095         1.454445         1.944050
 C        -3.033407         2.071477         1.328034
 O        -2.386606         1.728394        -0.019255
 C        -1.024633         1.835449         0.645305
 C        -0.894844         1.635573         3.117673
 C         0.398630         1.130169         2.322605
 H         0.416323        -0.987223         0.275753
 H        -2.023281        -0.614502         0.796930
 H        -1.191743        -0.741215         2.348336
 H        -4.027194         1.680556         1.364646
 H        -3.029477         3.154207         1.509327
 H        -0.485792         2.777266         0.324367
 H        -0.798308         2.747880         3.278261
 H        -1.186170         1.276065         4.040314
 H         1.161674         1.907944         2.143646
 H         0.833193         0.300913         2.902427
