19
Iteration:  4550charge 0 multiplicity 1
 O         0.601630         0.002990        -0.071848
 C        -0.315644         0.505767         0.957713
 C        -1.733785        -0.127999         1.494066
 C        -1.885784         1.477681         2.019115
 C        -2.897363         2.296118         1.245278
 O        -2.238633         1.958701        -0.031699
 C        -0.981754         1.825206         0.796511
 C        -0.939176         1.570645         3.123604
 C         0.293204         0.791846         2.416234
 H         1.014465        -0.779375         0.247283
 H        -2.516663        -0.602180         0.880188
 H        -1.560784        -0.777091         2.466472
 H        -3.954538         2.120587         1.315602
 H        -2.758381         3.387696         1.424629
 H        -0.464657         2.795848         0.799202
 H        -0.720197         2.675274         3.418279
 H        -1.240786         1.031586         4.097945
 H         1.253431         1.376137         2.479217
 H         0.498894        -0.289137         2.796290
