19
Iteration:  1418charge 0 multiplicity 1
 O         0.428475        -0.264998         0.082042
 C        -0.205310         0.571520         0.989448
 C        -1.535426         0.015969         1.562207
 C        -1.785842         1.460839         2.012783
 C        -3.051494         1.993051         1.261306
 O        -2.350691         1.866658        -0.107588
 C        -1.050964         1.907559         0.688743
 C        -0.875876         1.672507         3.136040
 C         0.439827         1.068883         2.384833
 H         0.689382         0.236376        -0.686966
 H        -2.391701        -0.460200         0.972429
 H        -1.331448        -0.731239         2.386696
 H        -4.109665         1.530412         1.128240
 H        -3.208249         3.091959         1.427402
 H        -0.531445         2.947696         0.642848
 H        -0.897924         2.714649         3.635502
 H        -1.020022         1.102862         4.075547
 H         1.228272         1.807202         2.174936
 H         0.941439         0.231215         3.134820
