19
Iteration:  4009charge 0 multiplicity 1
 O         0.525727         0.005829        -0.031762
 C        -0.324619         0.532201         1.041923
 C        -1.754221        -0.039470         1.442812
 C        -1.856074         1.432079         1.950670
 C        -2.936300         2.137693         1.237196
 O        -2.199205         1.998663        -0.023051
 C        -0.897119         1.839062         0.699239
 C        -0.965815         1.566354         3.163426
 C         0.340799         0.842862         2.471839
 H         0.899859        -0.811286         0.385205
 H        -2.478542        -0.248771         0.616777
 H        -1.679450        -0.880625         2.172408
 H        -3.855176         1.619523         1.323208
 H        -2.908779         3.214132         1.672571
 H        -0.326786         2.880067         0.640043
 H        -0.803937         2.651689         3.494322
 H        -1.188998         0.970593         4.029194
 H         1.220124         1.377594         2.408715
 H         0.453658        -0.173566         2.950260
