19
Iteration:  1901charge 0 multiplicity 1
 O         0.645959        -0.066751         0.180152
 C        -0.337224         0.519866         0.996086
 C        -1.588772        -0.136096         1.561916
 C        -1.840697         1.459782         1.957906
 C        -2.987305         2.160581         1.339104
 O        -2.402464         1.862406        -0.026959
 C        -1.097924         1.788967         0.656313
 C        -0.833013         1.622549         3.097569
 C         0.387297         1.079341         2.266608
 H         0.319214        -0.596270        -0.600416
 H        -2.301294        -0.384867         0.741546
 H        -1.533794        -0.890987         2.406946
 H        -3.936313         1.713921         1.232535
 H        -3.020112         3.168137         1.401155
 H        -0.667698         2.757402         0.616060
 H        -0.681764         2.686069         3.351630
 H        -0.928036         1.100384         4.048448
 H         1.120010         1.822646         1.942311
 H         1.139144         0.342812         2.818927
