19
Iteration:  3645charge 0 multiplicity 1
 O         0.566089        -0.219848         0.071155
 C        -0.231593         0.494499         0.967468
 C        -1.631219        -0.084069         1.444756
 C        -1.823657         1.455245         1.891263
 C        -3.012952         2.176692         1.410142
 O        -2.371421         2.032436         0.023479
 C        -1.009463         1.829535         0.659117
 C        -0.943276         1.611357         3.059182
 C         0.336057         0.959146         2.394970
 H         1.481534         0.027652         0.375277
 H        -2.231664        -0.488700         0.623670
 H        -1.550498        -0.794586         2.262534
 H        -3.995539         1.718559         1.319647
 H        -3.084731         3.266315         1.719535
 H        -0.324901         2.843711         0.477360
 H        -0.605399         2.567020         3.366375
 H        -1.013910         1.007243         4.005399
 H         1.080684         1.652547         2.158953
 H         0.748861         0.277320         3.159112
