19
Iteration:  4088
 O         0.435167        -0.259740         0.069261
 C        -0.228375         0.535509         1.029924
 C        -1.623827         0.026305         1.341334
 C        -1.806237         1.510280         1.936435
 C        -3.038847         2.108211         1.224870
 O        -2.262313         2.070730         0.020342
 C        -0.932665         1.930005         0.666284
 C        -0.967911         1.458511         3.253812
 C         0.402735         0.972886         2.396536
 H         1.346070        -0.495372         0.407627
 H        -2.186922        -0.047261         0.400580
 H        -1.821323        -0.785701         2.081101
 H        -3.983683         1.510428         1.444515
 H        -3.410426         3.218263         1.491655
 H        -0.261038         2.867248         0.378565
 H        -0.855564         2.364025         3.850759
 H        -1.368923         0.633906         3.856612
 H         1.167120         1.590817         2.485313
 H         0.783834         0.062802         2.885282
