19
Iteration:  2211
 O         0.691311        -0.222867         0.152948
 C        -0.336323         0.545818         0.963405
 C        -1.625518        -0.139507         1.596510
 C        -1.909160         1.419592         1.950405
 C        -3.110920         1.929278         1.310731
 O        -2.320888         2.142135         0.046293
 C        -1.089027         1.836644         0.728597
 C        -0.826957         1.776210         2.998496
 C         0.472711         1.018032         2.260560
 H         0.206552        -0.702120        -0.516716
 H        -2.215114        -0.549181         0.770497
 H        -1.562203        -0.757745         2.443333
 H        -4.029248         1.289024         1.086932
 H        -3.630988         2.894235         1.701293
 H        -0.362224         2.782587         0.716531
 H        -0.627741         2.873261         2.975682
 H        -0.936777         1.425772         4.006928
 H         1.212698         1.684711         2.069309
 H         0.959634         0.114461         2.770417
