19
Iteration:  2967
 O         0.565658        -0.199303         0.059089
 C        -0.218414         0.537242         0.974713
 C        -1.527509        -0.023045         1.524010
 C        -1.797097         1.505590         2.050371
 C        -3.066759         2.034345         1.273697
 O        -2.351918         1.991900        -0.000215
 C        -1.056090         1.815220         0.680164
 C        -0.881187         1.741109         3.134475
 C         0.390763         0.938579         2.357324
 H        -0.050309        -0.440628        -0.680915
 H        -2.236784        -0.144823         0.704698
 H        -1.531894        -0.873891         2.294952
 H        -3.762189         1.281059         1.227975
 H        -3.584236         2.963371         1.323647
 H        -0.578760         2.711019         0.597170
 H        -0.680946         2.786278         3.369490
 H        -1.188203         1.178100         4.075460
 H         1.301446         1.638088         2.113701
 H         0.609290         0.025144         3.009127
