19
Iteration:  4059
 O         0.631796        -0.167817         0.116970
 C        -0.320606         0.495709         0.956671
 C        -1.739274        -0.084916         1.403841
 C        -1.841271         1.346348         1.911807
 C        -3.001256         2.198056         1.267507
 O        -2.244455         2.137332         0.025687
 C        -1.028755         1.932748         0.704744
 C        -0.905448         1.511059         3.122886
 C         0.355328         0.886995         2.355792
 H         1.309439        -0.565788         0.726507
 H        -2.418226        -0.288989         0.600783
 H        -1.845375        -0.795947         2.227524
 H        -4.034514         1.733836         1.372555
 H        -2.982441         3.161812         1.601241
 H        -0.509422         2.807152         0.859517
 H        -0.734228         2.558841         3.259002
 H        -1.295517         1.062143         4.067690
 H         1.203647         1.800380         2.366977
 H         0.721009        -0.023591         2.858859
