19
Iteration:  3383charge 0 multiplicity 1
 O         0.592209        -0.150964         0.057647
 C        -0.227134         0.523081         1.016769
 C        -1.598168        -0.017910         1.430360
 C        -1.823254         1.459569         1.973431
 C        -3.018952         2.155521         1.330528
 O        -2.368521         1.831593         0.004589
 C        -1.008706         1.843468         0.710451
 C        -0.858635         1.636412         3.142682
 C         0.351994         1.070932         2.352518
 H        -0.015677        -0.854018        -0.095214
 H        -2.116142        -0.141257         0.449831
 H        -1.817851        -0.876105         2.131818
 H        -4.012381         1.606381         1.267992
 H        -3.163809         3.160573         1.482883
 H        -0.555658         2.788966         0.648675
 H        -0.765372         2.655383         3.448142
 H        -1.194933         0.991710         4.001849
 H         1.221863         1.874743         2.253501
 H         0.875979         0.240493         2.845427
