19
Iteration:  1151charge 0 multiplicity 1
 O         0.497014        -0.135521         0.015247
 C        -0.235026         0.593199         1.019547
 C        -1.513221        -0.070876         1.566327
 C        -1.840613         1.445510         1.955792
 C        -3.013843         1.982583         1.301593
 O        -2.379806         1.835775        -0.022349
 C        -1.120689         1.847037         0.705212
 C        -0.819115         1.829547         3.084554
 C         0.458143         1.032536         2.328047
 H         0.787198        -0.998869         0.457079
 H        -2.219646        -0.267026         0.678258
 H        -1.498143        -0.826129         2.416456
 H        -3.870126         1.331189         1.330802
 H        -3.382163         3.003415         1.695833
 H        -0.704729         2.929293         0.537020
 H        -0.735227         2.972924         3.095695
 H        -1.145659         1.353095         4.030049
 H         1.286209         1.668662         2.252713
 H         0.454878         0.106271         2.990012
