19
Iteration:  2952
 O         0.609728        -0.271537         0.098230
 C        -0.271525         0.511907         0.979310
 C        -1.599808        -0.040267         1.454998
 C        -1.816742         1.452273         1.927223
 C        -3.083278         1.999717         1.323087
 O        -2.405299         1.987459         0.018140
 C        -1.020566         1.921805         0.625095
 C        -0.832759         1.733032         3.170023
 C         0.400291         1.011593         2.423328
 H         0.249182        -0.070934        -0.740377
 H        -2.227844        -0.307620         0.576363
 H        -1.553091        -0.891421         2.190320
 H        -4.083028         1.388905         1.435487
 H        -3.146811         3.037762         1.776397
 H        -0.290923         2.751783         0.260451
 H        -0.641211         2.793901         3.299856
 H        -1.006950         1.369565         4.137637
 H         1.294902         1.665924         2.436655
 H         0.662392         0.114129         2.842441
