19
Iteration:   912charge 0 multiplicity 1
 O         0.634384        -0.200575         0.099345
 C        -0.332789         0.481419         0.995332
 C        -1.562357        -0.075691         1.545082
 C        -1.837593         1.511052         1.988567
 C        -3.160407         1.947697         1.295442
 O        -2.411378         1.947427         0.029951
 C        -1.132559         1.825625         0.663785
 C        -0.699575         1.786793         3.078646
 C         0.437390         1.125555         2.231724
 H         1.396617        -0.657112         0.495723
 H        -2.458958        -0.448741         1.025913
 H        -1.520546        -0.653866         2.428519
 H        -3.998261         1.266243         1.224443
 H        -3.610794         2.860663         1.595527
 H        -0.454824         2.633122         0.400918
 H        -0.728089         2.845295         3.412050
 H        -0.921727         1.279410         3.954526
 H         1.152340         1.815331         1.817216
 H         0.862682         0.273047         2.900292
