19
Iteration:  1227
 O         0.529260        -0.221537         0.184280
 C        -0.267865         0.584991         0.993437
 C        -1.454261        -0.076659         1.469201
 C        -1.800170         1.454218         1.937995
 C        -3.066623         2.088786         1.348807
 O        -2.448426         1.819246         0.054577
 C        -1.107983         1.828622         0.590828
 C        -0.848372         1.729026         3.076490
 C         0.401390         1.073534         2.318792
 H         1.454899         0.101685         0.073252
 H        -2.189407        -0.268242         0.649285
 H        -1.447968        -0.912652         2.202867
 H        -4.007603         1.649789         1.503909
 H        -3.017794         3.164334         1.265919
 H        -0.621198         2.859247         0.455148
 H        -0.792678         2.856010         3.343410
 H        -1.084606         1.230914         4.070703
 H         1.176249         1.832059         1.938340
 H         0.789322         0.113573         2.764227
