19
Iteration:  4367
 O         0.548909        -0.127993         0.096303
 C        -0.328424         0.501041         0.950607
 C        -1.739749        -0.074991         1.434179
 C        -1.828613         1.381613         1.949851
 C        -2.968617         2.118363         1.272696
 O        -2.151183         2.145395         0.056614
 C        -0.896411         1.815862         0.778629
 C        -0.973514         1.554781         3.125793
 C         0.273509         0.972615         2.262844
 H         0.755724        -1.018121         0.438068
 H        -2.436257        -0.284894         0.647987
 H        -1.620757        -0.939887         2.089800
 H        -3.962176         1.617544         1.304096
 H        -3.199304         3.142898         1.623064
 H        -0.375009         2.855501         0.823887
 H        -0.784824         2.611691         3.472312
 H        -1.250743         1.024614         4.031545
 H         1.098144         1.635583         1.937951
 H         0.792794         0.243953         2.797181
