19
Iteration:  1237
 O         0.554743        -0.261965         0.131799
 C        -0.210449         0.585303         0.959583
 C        -1.517288        -0.058021         1.481189
 C        -1.795864         1.455528         1.958823
 C        -3.031452         2.041347         1.321713
 O        -2.487950         1.810290        -0.006851
 C        -1.086058         1.849354         0.666365
 C        -0.803585         1.802840         3.063687
 C         0.333988         1.059340         2.348085
 H         1.340513         0.353836        -0.094148
 H        -2.315089        -0.265256         0.722876
 H        -1.411840        -0.858895         2.230026
 H        -4.004376         1.667559         1.568252
 H        -3.109409         3.069337         1.769816
 H        -0.673986         2.853469         0.368304
 H        -0.676016         2.892512         3.385808
 H        -1.150561         1.143351         3.949547
 H         1.372227         1.652661         2.411030
 H         0.715300         0.268395         3.002281
