19
Iteration:  4868
 O         0.473722        -0.067081         0.015553
 C        -0.342384         0.518031         1.024149
 C        -1.662819        -0.088177         1.620653
 C        -1.809724         1.330225         1.931636
 C        -2.918174         2.081604         1.211361
 O        -2.106030         2.173729        -0.027124
 C        -0.920775         1.844405         0.793918
 C        -0.969108         1.565570         3.062995
 C         0.266854         0.898385         2.346658
 H        -0.066222        -0.704779        -0.413714
 H        -2.405565        -0.388610         0.861612
 H        -1.526354        -0.836549         2.478440
 H        -3.837358         1.512588         1.170447
 H        -3.113288         3.115343         1.713314
 H        -0.267862         2.635462         0.762942
 H        -0.993681         2.668580         3.363363
 H        -1.249809         1.321074         4.077046
 H         1.105077         1.600021         2.261079
 H         0.590012        -0.030004         2.919284
