19
Iteration:  1367charge 0 multiplicity 1
 O         0.689074        -0.120675         0.098494
 C        -0.335267         0.504328         0.985591
 C        -1.641600        -0.138528         1.569744
 C        -1.825659         1.540943         1.961978
 C        -3.118265         2.070799         1.373258
 O        -2.384894         1.908322        -0.008730
 C        -1.121711         1.769890         0.646099
 C        -0.778858         1.757737         2.989525
 C         0.422828         1.026176         2.306650
 H         1.332359        -0.381078         0.740108
 H        -2.316978        -0.381039         0.786312
 H        -1.767573        -0.866792         2.333586
 H        -3.997692         1.352507         1.264275
 H        -3.170640         3.150660         1.604396
 H        -0.547181         2.666439         0.705294
 H        -0.567986         2.733827         3.298549
 H        -1.090031         1.285648         3.948957
 H         1.305694         1.692846         1.991721
 H         0.568398         0.160116         2.801067
