19
Iteration:  1426
 O         0.453399        -0.270972         0.076156
 C        -0.244949         0.601978         1.025519
 C        -1.555615         0.022770         1.567455
 C        -1.831692         1.494823         2.003683
 C        -3.021169         1.988984         1.210407
 O        -2.368934         1.856458        -0.092662
 C        -1.017380         1.880088         0.648721
 C        -0.851988         1.619943         3.207264
 C         0.450117         1.111544         2.395357
 H         0.524169         0.144602        -0.804814
 H        -2.305099        -0.292826         0.759345
 H        -1.516855        -0.625309         2.486150
 H        -3.925324         1.478094         1.223046
 H        -3.261777         3.003319         1.612697
 H        -0.584308         2.902078         0.601220
 H        -0.646309         2.732343         3.455990
 H        -1.127879         0.924651         4.008899
 H         1.175856         1.858508         2.233973
 H         1.020585         0.247096         2.896832
