19
Iteration:  4140
 O         0.541934        -0.110449         0.070002
 C        -0.335600         0.448663         1.007279
 C        -1.723908        -0.102327         1.433732
 C        -1.880574         1.338474         1.978288
 C        -2.984851         2.211594         1.219243
 O        -2.169450         2.095068         0.007268
 C        -0.981215         1.780416         0.759172
 C        -0.859893         1.618998         3.080798
 C         0.309651         0.864395         2.454428
 H         0.838132         0.673605        -0.488951
 H        -2.422718        -0.310887         0.587223
 H        -1.768609        -0.937339         2.158076
 H        -3.890320         1.756391         1.076565
 H        -3.138179         3.218690         1.653959
 H        -0.299573         2.638584         0.710543
 H        -0.726618         2.766808         3.164789
 H        -1.235181         1.318736         4.066954
 H         1.264452         1.532977         2.406500
 H         0.732202         0.051400         3.144219
