19
Iteration:  4567
 O         0.522999         0.032145        -0.100603
 C        -0.323450         0.435805         0.989545
 C        -1.680922        -0.064095         1.556078
 C        -1.817260         1.434054         1.919503
 C        -2.928181         2.293398         1.257871
 O        -2.172552         1.981543         0.057999
 C        -0.937383         1.760044         0.711167
 C        -0.999060         1.547738         3.148720
 C         0.234112         0.830827         2.431864
 H         1.096652        -0.719271         0.041656
 H        -2.335157        -0.275096         0.724569
 H        -1.660026        -0.757538         2.312204
 H        -3.993823         1.905205         1.196302
 H        -2.878755         3.344600         1.617160
 H        -0.122306         2.544957         0.641743
 H        -0.750542         2.544238         3.469686
 H        -1.308634         1.078337         4.094435
 H         1.015744         1.532364         2.188546
 H         0.589641         0.125564         3.121541
