19
Iteration:  2577charge 0 multiplicity 1
 O         0.539940        -0.108300         0.183434
 C        -0.306777         0.612425         0.936919
 C        -1.622791        -0.025369         1.589741
 C        -1.828083         1.448515         1.964735
 C        -3.088689         1.926054         1.218735
 O        -2.319640         2.023572         0.002306
 C        -1.007286         1.902644         0.719033
 C        -0.731430         1.719130         3.026049
 C         0.390430         0.857538         2.345684
 H         0.019156        -0.538922        -0.574561
 H        -2.425076        -0.345021         0.887463
 H        -1.346891        -0.746445         2.402220
 H        -3.801605         1.099320         1.135648
 H        -3.533617         2.902589         1.587236
 H        -0.631539         2.864821         0.839460
 H        -0.587552         2.840654         2.971346
 H        -0.939970         1.284731         4.035943
 H         1.386018         1.365765         2.231833
 H         0.511129        -0.262880         2.814943
