19
Iteration:   278charge 0 multiplicity 1
 O         0.535600        -0.095227        -0.054723
 C        -0.326134         0.511794         0.989217
 C        -1.684220         0.063351         1.680461
 C        -1.845984         1.481352         2.013669
 C        -3.109707         1.929290         1.204087
 O        -2.349195         1.834592        -0.014481
 C        -1.007333         1.754849         0.697366
 C        -0.744554         1.656971         3.120302
 C         0.449114         1.179002         2.349657
 H         1.307633        -0.455994         0.363649
 H        -2.331805        -0.162234         0.861988
 H        -1.583703        -0.731156         2.529156
 H        -3.928944         1.139981         1.028785
 H        -3.392889         2.986764         1.479940
 H        -0.411260         2.656565         0.524027
 H        -0.682893         2.662796         3.489721
 H        -0.986603         1.064760         4.113899
 H         1.125426         1.969397         1.928778
 H         0.957213         0.509281         3.033359
