19
Iteration:  2966
 O         0.567539        -0.205519         0.059908
 C        -0.207480         0.532353         0.977435
 C        -1.528134        -0.025593         1.516448
 C        -1.803237         1.500591         2.054447
 C        -3.059376         2.041892         1.279116
 O        -2.358498         1.991911         0.001619
 C        -1.055934         1.820411         0.673432
 C        -0.882913         1.751793         3.146789
 C         0.388557         0.935451         2.357350
 H        -0.039943        -0.431395        -0.725083
 H        -2.240296        -0.150375         0.691176
 H        -1.547840        -0.904907         2.282088
 H        -3.770686         1.261110         1.205780
 H        -3.606251         2.950615         1.342976
 H        -0.572893         2.721958         0.528152
 H        -0.684842         2.781636         3.370329
 H        -1.187434         1.192325         4.048307
 H         1.316063         1.641536         2.150202
 H         0.613456         0.066066         2.976967
