19
Iteration:  3380charge 0 multiplicity 1
 O         0.596191        -0.177861         0.066977
 C        -0.254709         0.535596         1.025995
 C        -1.567817        -0.011131         1.432043
 C        -1.832715         1.458249         1.957824
 C        -3.001664         2.138640         1.338748
 O        -2.357144         1.844064         0.001990
 C        -1.041917         1.849473         0.697570
 C        -0.863479         1.616726         3.175106
 C         0.356641         1.088896         2.345047
 H         0.023678        -0.944132        -0.267429
 H        -2.127145        -0.100027         0.483754
 H        -1.799513        -0.805574         2.104416
 H        -3.945239         1.656956         1.236800
 H        -3.290655         3.211585         1.470449
 H        -0.596509         2.823657         0.617557
 H        -0.694146         2.742103         3.431713
 H        -1.174582         0.953124         3.987906
 H         1.153581         1.880037         2.279703
 H         0.934494         0.194078         2.797379
