19
Iteration:  4880
 O         0.487860        -0.139099         0.084663
 C        -0.292366         0.522017         0.998363
 C        -1.640990        -0.155821         1.534470
 C        -1.896265         1.380802         1.917763
 C        -2.980879         2.122849         1.190161
 O        -2.167183         2.163282        -0.011961
 C        -0.965983         1.927184         0.740115
 C        -0.907578         1.586309         3.141989
 C         0.350250         0.866805         2.417102
 H        -0.146488        -0.505649        -0.584509
 H        -2.276035        -0.642019         0.779881
 H        -1.641471        -0.827126         2.501311
 H        -3.966937         1.716075         0.954356
 H        -3.073301         3.230382         1.575862
 H        -0.423263         2.813518         0.951397
 H        -0.586126         2.649165         3.190683
 H        -1.193321         1.035613         3.982625
 H         1.188428         1.593112         2.258822
 H         0.833803        -0.053756         2.858268
