19
Iteration:   106
 O         0.743594         0.028130         0.081437
 C        -0.227007         0.500795         0.996679
 C        -1.681821        -0.047814         1.710721
 C        -1.855904         1.496004         2.005214
 C        -3.232929         1.999313         1.248420
 O        -2.409848         1.778813        -0.004692
 C        -1.121605         1.747666         0.658229
 C        -0.771079         1.782377         3.070339
 C         0.485153         1.067717         2.231552
 H         0.450011        -0.865115        -0.233686
 H        -2.380779        -0.624754         1.165525
 H        -1.410976        -0.670568         2.604826
 H        -4.115995         1.387788         1.413809
 H        -3.533818         3.089674         1.396251
 H        -0.397451         2.615579         0.264145
 H        -0.516688         2.899350         3.222275
 H        -0.860991         1.161156         3.984547
 H         1.396636         1.689577         1.938498
 H         0.728447         0.248844         2.872458
