19
Iteration:  2773charge 0 multiplicity 1
 O         0.574632        -0.204815         0.182830
 C        -0.218141         0.566570         1.048514
 C        -1.619337        -0.054858         1.507618
 C        -1.808436         1.476920         1.934328
 C        -3.007306         2.225608         1.302825
 O        -2.404162         1.835603        -0.034184
 C        -1.080166         1.877134         0.641368
 C        -0.894375         1.504356         3.173124
 C         0.446966         1.051054         2.286495
 H         0.504845         0.048851        -0.791609
 H        -2.113063        -0.474997         0.668755
 H        -1.643800        -0.864133         2.232296
 H        -4.196673         2.001532         1.220238
 H        -3.083019         3.291146         1.657274
 H        -0.539325         2.926953         0.485705
 H        -0.827744         2.531484         3.557964
 H        -1.104984         0.847117         4.038579
 H         1.047878         1.828189         1.956560
 H         1.232119         0.391305         2.781911
