19
Iteration:   260charge 0 multiplicity 1
 O         0.451174        -0.083955        -0.007997
 C        -0.224705         0.540009         1.020316
 C        -1.528786        -0.118156         1.578637
 C        -1.770130         1.513238         1.961775
 C        -3.036140         2.021033         1.297557
 O        -2.328016         1.754148        -0.035983
 C        -1.097124         1.871554         0.675447
 C        -0.911388         1.710421         3.195804
 C         0.400604         1.144400         2.322201
 H         0.861470        -0.887945         0.287150
 H        -2.268397        -0.380938         0.805596
 H        -1.384079        -0.699889         2.445851
 H        -3.848023         1.403713         1.543165
 H        -3.175990         3.079602         1.241961
 H        -0.557173         2.759728         0.376670
 H        -0.689274         2.732614         3.542936
 H        -1.165177         1.097660         4.013237
 H         1.055249         2.009795         2.039960
 H         1.042208         0.362048         2.692400
