19
Iteration:  2964
 O         0.570186        -0.218031         0.059848
 C        -0.191564         0.522120         0.983583
 C        -1.532377        -0.032454         1.504870
 C        -1.816525         1.489946         2.053239
 C        -3.043859         2.052606         1.288727
 O        -2.370378         1.991044         0.004926
 C        -1.056624         1.830419         0.663026
 C        -0.882732         1.768353         3.169919
 C         0.387316         0.936567         2.356746
 H         0.011526        -0.398977        -0.767365
 H        -2.248617        -0.176906         0.668978
 H        -1.576308        -0.930196         2.224414
 H        -3.819288         1.203782         1.174513
 H        -3.648062         2.963973         1.403614
 H        -0.521173         2.792180         0.386534
 H        -0.683309         2.796950         3.375998
 H        -1.177793         1.220993         4.007683
 H         1.304947         1.613090         2.246260
 H         0.639176         0.129040         2.918861
