19
Iteration:  2915charge 0 multiplicity 1
 O         0.725168        -0.197499         0.182234
 C        -0.374811         0.510529         0.979626
 C        -1.619211        -0.117828         1.556112
 C        -1.870680         1.447246         2.009315
 C        -3.100372         2.145249         1.277362
 O        -2.379755         1.984007        -0.003987
 C        -1.068774         1.819938         0.674887
 C        -0.801312         1.595961         3.142361
 C         0.389007         1.051971         2.238374
 H         0.590364         0.208785        -0.690700
 H        -2.243381        -0.495444         0.764193
 H        -1.586944        -0.803106         2.362923
 H        -4.204581         1.988586         1.229220
 H        -2.986102         3.284066         1.443633
 H        -0.401384         2.775585         0.453910
 H        -0.622256         2.681993         3.342625
 H        -0.974686         0.985786         4.099536
 H         1.176820         1.638791         1.852370
 H         0.913478         0.098952         2.673549
