19
Iteration:  2308
 O         0.532873        -0.066600         0.082745
 C        -0.321909         0.535775         1.050341
 C        -1.608281        -0.089993         1.713562
 C        -1.862521         1.395067         1.979612
 C        -3.033278         2.022161         1.164226
 O        -2.283729         1.975861        -0.040666
 C        -1.084278         1.835422         0.749787
 C        -0.749869         1.655267         3.063216
 C         0.409266         1.009570         2.305528
 H         0.015763        -0.188674        -0.703438
 H        -2.263697        -0.585398         0.981007
 H        -1.463595        -0.691932         2.626261
 H        -4.060624         1.500816         1.204500
 H        -3.326988         2.994255         1.528545
 H        -0.454303         2.755662         0.550759
 H        -0.514251         2.717153         3.218159
 H        -1.135218         1.140349         3.937696
 H         1.194353         1.795762         1.910372
 H         0.870959         0.047556         2.672454
