19
Iteration:  2195charge 0 multiplicity 1
 O         0.553707        -0.210764         0.118484
 C        -0.240459         0.437317         0.995032
 C        -1.534761        -0.086967         1.563803
 C        -1.816243         1.345695         1.963950
 C        -3.042563         1.964210         1.269543
 O        -2.339324         2.103532         0.011812
 C        -1.072835         1.827224         0.699577
 C        -0.815805         1.769499         3.080863
 C         0.351965         1.112807         2.308040
 H         0.000421        -0.450373        -0.598503
 H        -2.364487        -0.284183         0.820803
 H        -1.496290        -1.004035         2.268875
 H        -3.867366         1.223969         1.244938
 H        -3.348841         2.923119         1.644288
 H        -0.495463         2.775418         0.719007
 H        -0.833890         2.871813         3.140257
 H        -1.022014         1.342564         4.106961
 H         1.204140         1.926055         1.958582
 H         0.682687         0.345325         2.954161
