19
Iteration:  3920
 O         0.655708        -0.263059         0.166909
 C        -0.283772         0.540417         0.992207
 C        -1.667072        -0.085159         1.331546
 C        -1.905107         1.351318         1.955760
 C        -2.979442         2.186293         1.316068
 O        -2.311659         2.137779         0.005434
 C        -1.088423         1.806203         0.693706
 C        -0.847566         1.603710         3.111224
 C         0.297341         0.930219         2.393664
 H         1.081417         0.415129        -0.438670
 H        -2.333568        -0.155380         0.473191
 H        -1.681371        -0.949399         2.042397
 H        -3.965959         1.894477         1.188656
 H        -2.860461         3.261285         1.715972
 H        -0.324565         2.712059         0.899968
 H        -0.595860         2.704122         3.256896
 H        -1.139204         1.111912         4.037561
 H         1.282449         1.434321         2.422464
 H         0.552415        -0.034053         3.025846
