19
Iteration:  2120charge 0 multiplicity 1
 O         0.677800        -0.028420         0.150256
 C        -0.304083         0.506939         1.020636
 C        -1.655669        -0.033334         1.588497
 C        -1.794915         1.448638         1.998277
 C        -2.998578         2.075092         1.316934
 O        -2.424385         1.871315        -0.040392
 C        -1.086063         1.786737         0.655642
 C        -0.795767         1.700506         3.016692
 C         0.378373         0.951228         2.339832
 H         0.277078        -0.378004        -0.719484
 H        -2.338752        -0.411345         0.793771
 H        -1.609432        -0.826703         2.412699
 H        -4.111668         1.687982         1.331393
 H        -3.194945         3.166594         1.556521
 H        -0.376375         2.745125         0.519507
 H        -0.520258         2.759442         3.185138
 H        -1.100175         1.252420         3.995003
 H         1.199710         1.619835         2.086750
 H         0.638923         0.059289         2.758676
