19
Iteration:  1602
 O         0.618533        -0.147306         0.124577
 C        -0.240943         0.544658         0.960179
 C        -1.597603        -0.038585         1.532025
 C        -1.836185         1.374617         1.973899
 C        -3.047483         2.074431         1.300428
 O        -2.376704         1.879525        -0.037279
 C        -1.108146         1.846802         0.691314
 C        -0.842033         1.754134         3.046389
 C         0.411187         1.027049         2.386381
 H         0.162411        -0.694628        -0.546014
 H        -2.451270        -0.420996         0.929932
 H        -1.567451        -0.815104         2.367694
 H        -4.003953         1.629221         1.450017
 H        -2.970339         3.249467         1.554375
 H        -0.565160         2.771660         0.682035
 H        -0.496526         2.803227         3.116058
 H        -0.888857         1.602209         4.092982
 H         1.325486         1.546340         2.257731
 H         0.557363         0.004790         2.920245
