19
Iteration:  2233charge 0 multiplicity 1
 O         0.686775        -0.145180         0.247157
 C        -0.303281         0.489462         0.950601
 C        -1.570294        -0.076570         1.578620
 C        -1.778005         1.433885         2.010433
 C        -3.105644         2.017972         1.260781
 O        -2.455834         2.072094        -0.016016
 C        -1.136739         1.855603         0.643977
 C        -0.737539         1.686032         3.061190
 C         0.371874         0.978041         2.245304
 H         0.396950        -0.698027        -0.542771
 H        -2.232365        -0.442372         0.799240
 H        -1.451357        -0.752874         2.385285
 H        -4.111542         1.425493         1.194060
 H        -3.504958         3.100192         1.525879
 H        -0.523986         2.902933         0.677824
 H        -0.378224         2.706688         3.251472
 H        -0.873115         1.115213         3.962844
 H         1.203153         1.537450         2.110569
 H         0.731160         0.058528         2.842166
