19
Iteration:   391charge 0 multiplicity 1
 O         0.587111        -0.065250         0.063279
 C        -0.264230         0.545192         0.991730
 C        -1.554789        -0.070708         1.669824
 C        -1.855151         1.519228         1.998823
 C        -3.105217         2.022939         1.196688
 O        -2.331130         1.862781        -0.046237
 C        -1.056367         1.850996         0.756770
 C        -0.828990         1.632834         3.104703
 C         0.390849         1.058999         2.275377
 H         0.219282        -0.870892        -0.285009
 H        -2.254538        -0.727938         1.044631
 H        -1.519246        -0.646479         2.587566
 H        -4.061157         1.456533         1.151860
 H        -3.283050         3.138512         1.329042
 H        -0.542558         2.768263         0.698341
 H        -0.526150         2.639088         3.499624
 H        -0.975333         1.010152         3.951468
 H         1.089428         1.866537         1.883768
 H         0.881583         0.287221         2.848023
