19
Iteration:  1238charge 0 multiplicity 1
 O         0.559945        -0.262550         0.126175
 C        -0.209162         0.578797         0.952889
 C        -1.533044        -0.050091         1.485753
 C        -1.794869         1.458457         1.963454
 C        -3.028370         2.039832         1.327520
 O        -2.492402         1.809303        -0.016966
 C        -1.086860         1.851045         0.672231
 C        -0.804743         1.801121         3.063463
 C         0.339623         1.064156         2.355413
 H         1.343406         0.362472        -0.132095
 H        -2.298732        -0.290858         0.711599
 H        -1.390936        -0.863291         2.258936
 H        -3.977599         1.652292         1.524784
 H        -3.123818         3.033682         1.796737
 H        -0.650934         2.867136         0.372793
 H        -0.644775         2.915349         3.365737
 H        -1.133168         1.152658         3.938922
 H         1.346633         1.649198         2.429935
 H         0.684800         0.232440         3.042727
