19
Iteration:  3767
 O         0.613008        -0.182051         0.104819
 C        -0.280380         0.463587         0.981242
 C        -1.712441        -0.009643         1.467477
 C        -1.864995         1.491329         1.918565
 C        -3.034096         2.179858         1.271021
 O        -2.326110         1.999109        -0.018072
 C        -1.058348         1.975753         0.688932
 C        -0.764774         1.504840         3.137700
 C         0.356786         0.906516         2.350410
 H         1.267400        -0.652569         0.721299
 H        -2.437482        -0.284784         0.669331
 H        -1.586622        -0.904764         2.136692
 H        -4.033783         1.679682         1.305572
 H        -3.143159         3.227272         1.574833
 H        -0.703696         2.912417         0.607310
 H        -0.540304         2.546649         3.407943
 H        -1.146233         1.027444         4.060849
 H         1.149550         1.680299         2.426334
 H         0.716980        -0.057696         2.820522
