19
Iteration:  4459
 O         0.505949        -0.067804         0.033219
 C        -0.282391         0.488908         1.107970
 C        -1.707016        -0.125077         1.516187
 C        -1.910637         1.391777         1.894115
 C        -2.982830         2.224300         1.241050
 O        -2.170446         2.133491        -0.029851
 C        -1.068556         1.802574         0.782675
 C        -0.877943         1.491867         3.039301
 C         0.389588         0.928699         2.388401
 H         0.940936        -0.909125         0.355296
 H        -2.316657        -0.411783         0.644300
 H        -1.762076        -0.939510         2.205096
 H        -4.069440         2.013318         1.154060
 H        -2.935134         3.251706         1.562065
 H        -0.331824         2.716738         0.923473
 H        -0.716642         2.450901         3.405372
 H        -1.091895         0.841263         3.892605
 H         1.077414         1.705567         2.171187
 H         0.948051         0.192645         2.901465
