19
Iteration:  2801
 O         0.690884        -0.220095         0.186212
 C        -0.299223         0.511092         0.973515
 C        -1.635803        -0.085684         1.509989
 C        -1.867442         1.432025         1.977030
 C        -3.011546         2.116857         1.351014
 O        -2.393979         2.010812        -0.049361
 C        -1.077820         1.796508         0.682568
 C        -0.843769         1.663226         3.101095
 C         0.344636         1.042500         2.296558
 H         0.621840        -0.056907        -0.755680
 H        -2.375570        -0.440976         0.729122
 H        -1.375127        -0.907870         2.212494
 H        -3.986411         1.849720         1.221939
 H        -2.906947         3.088908         1.852025
 H        -0.520057         2.675704         0.618297
 H        -0.698847         2.704483         3.466132
 H        -0.997188         0.984319         3.976158
 H         1.144960         1.826778         1.868498
 H         0.867052         0.293516         2.835749
