19
Iteration:   708
 O         0.405354        -0.118602         0.013747
 C        -0.298979         0.595417         1.014627
 C        -1.550051        -0.028269         1.497622
 C        -1.758116         1.445577         1.938949
 C        -2.981837         2.033744         1.326279
 O        -2.419358         1.805257        -0.054278
 C        -1.003375         1.770599         0.595327
 C        -0.840716         1.670569         3.161012
 C         0.422564         1.107334         2.486512
 H         1.326529        -0.225428         0.332932
 H        -2.293064        -0.210929         0.707229
 H        -1.280238        -0.713582         2.293123
 H        -3.943189         1.532077         1.426068
 H        -3.236575         3.084812         1.415860
 H        -0.581849         2.665357         0.342179
 H        -0.786849         2.775949         3.428851
 H        -1.089611         1.198350         4.144254
 H         1.234466         1.898643         2.219534
 H         0.825697         0.252794         2.998418
