19
Iteration:  2550
 O         0.647623        -0.183076         0.117122
 C        -0.314443         0.463124         0.993284
 C        -1.638175        -0.045571         1.528097
 C        -1.814891         1.535208         1.978097
 C        -3.106536         2.119586         1.298642
 O        -2.376449         1.926142        -0.049535
 C        -1.021378         1.827575         0.673709
 C        -0.804299         1.631643         3.173912
 C         0.426387         1.012723         2.333785
 H         0.267680        -0.077244        -0.805625
 H        -2.355880        -0.227236         0.751619
 H        -1.630810        -0.825883         2.265720
 H        -3.976830         1.404551         1.315665
 H        -3.244522         3.141200         1.572939
 H        -0.549380         2.877846         0.561274
 H        -0.799840         2.639845         3.616072
 H        -0.980703         0.989427         4.033125
 H         1.030465         1.809090         1.894148
 H         1.020233         0.234974         2.873515
