19
Iteration:  4698charge 0 multiplicity 1
 O         0.548452        -0.048606         0.136275
 C        -0.304346         0.537994         1.057223
 C        -1.728422        -0.016586         1.474637
 C        -1.805654         1.469932         1.972363
 C        -2.981084         2.199193         1.225595
 O        -2.223703         2.000069        -0.071602
 C        -0.961934         1.890639         0.678301
 C        -0.870209         1.482117         3.198151
 C         0.314416         0.750486         2.401754
 H         0.306241         0.279333        -0.777687
 H        -2.429256        -0.188180         0.704635
 H        -1.780822        -0.815429         2.158914
 H        -3.945292         1.610759         1.244529
 H        -3.127424         3.275970         1.316967
 H        -0.302226         2.657519         0.512207
 H        -0.584011         2.479895         3.482700
 H        -1.289441         0.866093         4.016824
 H         1.181233         1.431916         2.313797
 H         0.662423        -0.192485         2.812213
