19
Iteration:  1404charge 0 multiplicity 1
 O         0.451098        -0.230321         0.074305
 C        -0.305382         0.565848         0.994496
 C        -1.483624        -0.107245         1.602040
 C        -1.849788         1.444244         1.941888
 C        -3.076354         2.048468         1.259335
 O        -2.280958         1.894435         0.000535
 C        -1.071557         1.857594         0.710364
 C        -0.851702         1.742498         3.074426
 C         0.386838         1.064741         2.345089
 H         1.123290         0.349992        -0.361768
 H        -2.094966        -0.494322         0.743813
 H        -1.303623        -0.817324         2.467654
 H        -3.943260         1.493965         1.376125
 H        -3.326220         3.144285         1.455940
 H        -0.495856         2.820753         0.629104
 H        -0.666667         2.872441         3.178605
 H        -1.165148         1.200576         3.967751
 H         1.257065         1.686642         2.258291
 H         0.740195         0.106504         2.866112
