19
Iteration:  3017
 O         0.564276        -0.067615         0.074277
 C        -0.303401         0.463268         0.986192
 C        -1.609378        -0.080175         1.563649
 C        -1.833857         1.453981         1.975107
 C        -3.001047         2.153335         1.275329
 O        -2.312818         1.886210        -0.061856
 C        -1.076000         1.755906         0.766784
 C        -0.802910         1.625718         3.162228
 C         0.361944         1.074106         2.317700
 H         0.156535        -0.547394        -0.711091
 H        -2.305221        -0.334446         0.766978
 H        -1.530981        -0.805009         2.363427
 H        -4.109708         1.823657         1.134423
 H        -2.921030         3.258518         1.533523
 H        -0.471201         2.773281         0.596140
 H        -0.581944         2.633375         3.563510
 H        -1.081061         0.998439         3.984804
 H         1.011327         1.897707         2.133408
 H         0.823149         0.239074         2.785104
