19
Iteration:  3596
 O         0.538585        -0.095917         0.019008
 C        -0.301162         0.522528         0.990388
 C        -1.698806        -0.036315         1.533400
 C        -1.788477         1.499354         1.952653
 C        -3.028607         2.096516         1.238672
 O        -2.232239         1.969873         0.014020
 C        -1.027428         1.844688         0.769803
 C        -0.902537         1.541168         3.126457
 C         0.381745         1.048050         2.337155
 H         0.615569        -1.007527         0.305546
 H        -2.433441        -0.320827         0.751746
 H        -1.591119        -0.836433         2.280364
 H        -3.839007         1.388597         1.265624
 H        -3.322434         3.104693         1.497888
 H        -0.367899         2.669345         0.624364
 H        -0.779893         2.560348         3.625822
 H        -1.118296         0.823365         3.881056
 H         1.256675         1.771875         2.038798
 H         0.897492         0.072675         2.725177
