19
Iteration:  2566
 O         0.624330        -0.162391         0.138514
 C        -0.287878         0.571311         0.969541
 C        -1.659596         0.029285         1.585031
 C        -1.823110         1.471266         2.016772
 C        -3.088076         1.956500         1.228242
 O        -2.306180         1.983959         0.027209
 C        -1.076527         1.900753         0.728672
 C        -0.770337         1.657724         3.054672
 C         0.365054         0.931941         2.254449
 H         0.190649        -0.337376        -0.684075
 H        -2.374714        -0.396113         0.842694
 H        -1.608432        -0.730496         2.417397
 H        -3.977589         1.300336         1.191983
 H        -3.555405         3.000665         1.334058
 H        -0.428066         2.747201         0.628063
 H        -0.351494         2.675604         3.287110
 H        -1.043742         1.331774         4.093859
 H         1.300936         1.538234         2.250039
 H         0.682602        -0.105402         2.853393
