19
Iteration:  1509
 O         0.675613        -0.152540         0.171127
 C        -0.245464         0.512517         0.983385
 C        -1.602731        -0.096742         1.497474
 C        -1.772540         1.427085         1.910390
 C        -2.974720         2.057972         1.377458
 O        -2.455253         1.940183        -0.015293
 C        -1.035197         1.849871         0.615751
 C        -0.864117         1.761366         3.038764
 C         0.335222         0.966081         2.370695
 H         0.039325        -0.593133        -0.410253
 H        -2.376428        -0.272413         0.796660
 H        -1.718499        -0.830699         2.264149
 H        -3.982908         1.459580         1.517525
 H        -3.052243         3.098610         1.663700
 H        -0.735732         2.904026         0.569914
 H        -0.698384         2.803853         3.040075
 H        -1.056955         1.592493         4.104842
 H         1.277046         1.702409         2.288521
 H         0.535895         0.182365         3.054252
