19
Iteration:  4543charge 0 multiplicity 1
 O         0.579556         0.000406        -0.006713
 C        -0.312595         0.556272         0.948702
 C        -1.713465        -0.088715         1.502921
 C        -1.854573         1.434734         1.978782
 C        -2.925069         2.300324         1.215503
 O        -2.260808         1.975612        -0.073327
 C        -1.044813         1.821013         0.766924
 C        -0.879231         1.516871         3.180910
 C         0.312851         0.769531         2.426669
 H         0.980468        -0.802761         0.311560
 H        -2.470258        -0.396183         0.735100
 H        -1.602761        -0.794542         2.336442
 H        -4.030853         2.051534         1.358038
 H        -2.719891         3.392133         1.452828
 H        -0.466862         2.717846         0.914665
 H        -0.701990         2.657705         3.324573
 H        -1.037361         1.157126         4.220614
 H         1.299892         1.319893         2.374228
 H         0.485552        -0.242480         2.906539
