19
Iteration:   618
 O         0.598940        -0.350706         0.052833
 C        -0.219235         0.593650         0.968634
 C        -1.505069        -0.044082         1.492007
 C        -1.808657         1.467169         1.951056
 C        -3.047983         2.113032         1.313017
 O        -2.448945         1.812160         0.042085
 C        -1.080545         1.911542         0.601787
 C        -0.910923         1.660146         3.169535
 C         0.355696         1.156069         2.398218
 H         1.239170         0.204721        -0.514969
 H        -2.169583        -0.233912         0.669845
 H        -1.334484        -0.820726         2.197620
 H        -4.040063         1.747970         1.610664
 H        -3.082453         3.152470         1.653274
 H        -0.613458         2.808455         0.465882
 H        -0.837674         2.732789         3.527999
 H        -1.212054         1.044567         4.045351
 H         1.324754         1.836149         2.278310
 H         0.755110         0.231649         2.726749
