19
Iteration:  2941
 O         0.601123        -0.236115         0.188942
 C        -0.301735         0.567233         0.942381
 C        -1.602985        -0.023698         1.454448
 C        -1.769730         1.416218         1.926602
 C        -3.032526         2.029907         1.389250
 O        -2.413422         1.991696         0.000654
 C        -1.037232         1.845341         0.643354
 C        -0.806691         1.645061         3.035694
 C         0.382484         1.013729         2.430817
 H         0.552706         0.000634        -0.753918
 H        -2.360377        -0.315655         0.687818
 H        -1.560068        -0.725716         2.321164
 H        -4.107894         1.541104         1.405871
 H        -3.214019         3.140517         1.534597
 H        -0.589511         2.917511         0.713898
 H        -0.695207         2.720031         3.091653
 H        -1.114687         1.243368         3.950906
 H         1.209311         1.647298         2.097183
 H         0.734914         0.200561         2.963160
