19
Iteration:  1097charge 0 multiplicity 1
 O         0.620995        -0.084242         0.151000
 C        -0.309264         0.507656         1.034302
 C        -1.566567        -0.031301         1.696175
 C        -1.842676         1.496630         1.934417
 C        -3.088248         2.066504         1.310809
 O        -2.389454         1.808039        -0.053783
 C        -1.078906         1.734769         0.643476
 C        -0.776867         1.666599         3.099554
 C         0.395340         1.091951         2.216871
 H         0.489320         0.065310        -0.838385
 H        -2.359326        -0.443100         0.974155
 H        -1.317002        -0.788471         2.496624
 H        -4.117890         1.668733         1.354351
 H        -3.286495         3.143180         1.534747
 H        -0.553766         2.657091         0.412704
 H        -0.598596         2.757599         3.308963
 H        -0.996514         1.187584         4.017037
 H         1.094229         1.796738         1.979495
 H         0.982310         0.364549         2.891831
