19
Iteration:  2683charge 0 multiplicity 1
 O         0.634162        -0.177138         0.161331
 C        -0.322165         0.483760         0.936343
 C        -1.592804        -0.006496         1.512431
 C        -1.771636         1.479903         1.961873
 C        -2.977994         2.091114         1.343945
 O        -2.365480         1.948581        -0.006700
 C        -1.038150         1.850247         0.690110
 C        -0.877117         1.611658         3.094438
 C         0.345487         0.997400         2.306706
 H         0.235009        -0.478217        -0.723842
 H        -2.294444        -0.302797         0.743688
 H        -1.619531        -0.762274         2.248366
 H        -4.000453         1.509540         1.355206
 H        -3.344520         3.111462         1.634860
 H        -0.472840         2.887756         0.611253
 H        -0.791497         2.702455         3.243776
 H        -1.193636         1.292490         4.086522
 H         1.065138         1.743440         2.137065
 H         0.772538         0.249604         2.952806
