19
Iteration:  3735charge 0 multiplicity 1
 O         0.454974        -0.098807         0.011570
 C        -0.304493         0.523339         1.015126
 C        -1.625377        -0.114442         1.510467
 C        -1.811031         1.406877         1.952366
 C        -2.929175         2.135138         1.241269
 O        -2.236162         2.014427        -0.025524
 C        -0.985885         1.849447         0.690865
 C        -0.937063         1.592312         3.163664
 C         0.349607         0.987338         2.438676
 H         0.265604        -1.017573        -0.191140
 H        -2.323616        -0.373321         0.680646
 H        -1.408459        -0.917142         2.269461
 H        -3.968722         1.609622         1.322978
 H        -2.987404         3.160791         1.652972
 H        -0.326967         2.854332         0.595370
 H        -0.716499         2.674565         3.277167
 H        -1.187016         1.110594         4.126198
 H         1.025790         1.847507         2.334101
 H         0.882359         0.235735         2.912919
