19
Iteration:  4709charge 0 multiplicity 1
 O         0.513494        -0.108657         0.080353
 C        -0.274443         0.436639         1.063692
 C        -1.701145         0.048640         1.482175
 C        -1.780417         1.576685         1.863105
 C        -3.057216         2.122718         1.241524
 O        -2.230258         2.042714        -0.043600
 C        -0.905515         1.909832         0.696128
 C        -0.917849         1.428522         3.149137
 C         0.369646         0.753095         2.481378
 H         0.321577         0.481588        -0.631428
 H        -2.209750        -0.178133         0.596021
 H        -1.914698        -0.531601         2.314631
 H        -3.985745         1.483124         1.214020
 H        -3.311857         3.122494         1.570906
 H        -0.459035         2.776248         0.528443
 H        -0.484613         2.354626         3.475995
 H        -1.366876         1.087382         4.083025
 H         1.090715         1.584550         2.420780
 H         0.833003        -0.049991         3.023928
