19
Iteration:  4776charge 0 multiplicity 1
 O         0.633007        -0.236578         0.048745
 C        -0.248621         0.402849         1.047468
 C        -1.723375        -0.079804         1.451751
 C        -1.840698         1.416485         1.922584
 C        -3.020385         2.245775         1.299921
 O        -2.289318         2.204972        -0.006043
 C        -1.052772         1.798083         0.682244
 C        -0.921349         1.518815         3.134933
 C         0.358137         0.937292         2.391804
 H         1.512707         0.265309         0.209058
 H        -2.218484        -0.206514         0.533378
 H        -1.933463        -0.803901         2.123151
 H        -4.075372         1.935540         1.110266
 H        -3.026148         3.234124         1.647046
 H        -0.331986         2.524710         0.743038
 H        -0.883848         2.423718         3.646142
 H        -1.241462         0.959241         3.999640
 H         1.171833         1.602649         2.154836
 H         0.749585         0.086900         2.888660
