19
Iteration:  3530charge 0 multiplicity 1
 O         0.691681        -0.048321         0.128701
 C        -0.357755         0.524522         0.946301
 C        -1.715230        -0.083459         1.499357
 C        -1.873802         1.433461         2.006713
 C        -3.013573         2.109387         1.294719
 O        -2.304662         1.987434        -0.034402
 C        -1.041400         1.797867         0.753224
 C        -0.814876         1.596000         3.105980
 C         0.384849         0.928197         2.333507
 H         0.129804        -0.658545        -0.443381
 H        -2.477577        -0.304608         0.710604
 H        -1.721441        -0.884734         2.243597
 H        -3.950129         1.626110         1.154217
 H        -3.123471         3.159543         1.570930
 H        -0.416413         2.720619         0.481174
 H        -0.583488         2.712068         3.069563
 H        -1.020445         1.387989         4.133747
 H         1.175759         1.781995         2.144294
 H         0.817112         0.153966         3.063065
