19
Iteration:  1048
 O         0.456499        -0.254888         0.141457
 C        -0.254798         0.582535         1.017790
 C        -1.504684        -0.040141         1.536166
 C        -1.816564         1.453698         1.947182
 C        -3.086268         1.929986         1.341676
 O        -2.403624         1.891338         0.059265
 C        -1.082459         1.857695         0.617722
 C        -0.807649         1.745189         2.993270
 C         0.441845         1.137284         2.252009
 H         1.316899        -0.374154         0.522575
 H        -1.958853        -0.535358         0.730480
 H        -1.326498        -0.773751         2.321512
 H        -4.026710         1.333474         1.470222
 H        -3.386234         2.979110         1.444440
 H        -0.649650         2.929445         0.459736
 H        -0.775502         2.823216         3.158258
 H        -1.068790         1.259995         4.030060
 H         1.121136         2.051430         2.262969
 H         1.060333         0.512243         2.826467
