19
Iteration:  2825charge 0 multiplicity 1
 O         0.611875        -0.109784         0.179947
 C        -0.314549         0.562962         0.995067
 C        -1.642379        -0.078086         1.539231
 C        -1.831195         1.475574         1.953792
 C        -3.065186         1.994414         1.269816
 O        -2.342532         2.059380         0.055355
 C        -1.013755         1.802013         0.661382
 C        -0.780540         1.646155         2.977216
 C         0.382680         0.953624         2.358709
 H         0.098167        -0.545501        -0.584695
 H        -2.379231        -0.431232         0.830710
 H        -1.496366        -0.784425         2.372787
 H        -3.868887         1.277827         1.227528
 H        -3.499031         3.025335         1.558045
 H        -0.329114         2.693144         0.568235
 H        -0.564624         2.730316         3.078745
 H        -1.222148         1.289639         3.953080
 H         1.275784         1.652086         2.282342
 H         0.694718         0.016893         2.802408
