19
Iteration:  3055charge 0 multiplicity 1
 O         0.614948        -0.231133         0.247024
 C        -0.253208         0.594902         0.897102
 C        -1.531108        -0.048721         1.456182
 C        -1.779657         1.470481         1.954957
 C        -3.045444         2.066429         1.373020
 O        -2.464076         1.979074        -0.029392
 C        -1.089859         1.839509         0.610730
 C        -0.788969         1.665959         3.122430
 C         0.336893         0.973362         2.338012
 H         0.592589        -0.000111        -0.704829
 H        -2.297898        -0.293211         0.677497
 H        -1.720403        -0.766614         2.328050
 H        -3.984703         1.592265         1.378157
 H        -3.142284         3.095004         1.723800
 H        -0.549997         2.704245         0.482848
 H        -0.567483         2.690870         3.404404
 H        -1.063570         1.006512         3.994114
 H         1.296672         1.555331         2.178235
 H         0.673549         0.094760         2.940527
