19
Iteration:  2621
 O         0.620045        -0.156102         0.091159
 C        -0.328180         0.485613         0.950743
 C        -1.630280        -0.041246         1.514482
 C        -1.828985         1.403293         1.963808
 C        -3.026887         2.149665         1.353975
 O        -2.317850         1.898283         0.017762
 C        -1.009850         1.900285         0.715595
 C        -0.916138         1.629652         3.088884
 C         0.410319         1.062306         2.314716
 H         0.165319        -0.668108        -0.650925
 H        -2.338765        -0.380943         0.745640
 H        -1.486430        -0.678353         2.427687
 H        -3.976315         1.602249         1.269469
 H        -2.993410         3.197139         1.601363
 H        -0.361223         2.692384         0.556795
 H        -0.839957         2.715940         3.370171
 H        -1.154166         1.064320         4.037386
 H         1.218652         1.790731         2.004831
 H         0.729574         0.105704         2.981321
