19
Iteration:  1714
 O         0.557817        -0.054374         0.088124
 C        -0.295557         0.504694         0.986285
 C        -1.621935        -0.025660         1.656203
 C        -1.811951         1.492886         1.940916
 C        -3.108708         2.009791         1.271697
 O        -2.299998         1.882352        -0.009212
 C        -1.004454         1.808296         0.682106
 C        -0.827996         1.731071         3.083278
 C         0.390906         0.988333         2.329482
 H         0.057528        -0.606998        -0.604899
 H        -2.312210        -0.441667         0.879794
 H        -1.591838        -0.719628         2.527986
 H        -3.761434         1.217597         1.284605
 H        -3.422123         3.120206         1.258308
 H        -0.499987         2.731513         0.539697
 H        -0.499678         2.762267         3.340735
 H        -0.983664         1.202812         4.026129
 H         1.206585         1.631383         2.088700
 H         0.875021         0.136854         2.909835
