19
Iteration:  3317
 O         0.683654        -0.208026         0.110401
 C        -0.301815         0.472860         0.972987
 C        -1.642861        -0.132013         1.501079
 C        -1.857265         1.364610         1.988492
 C        -3.065174         2.066775         1.278837
 O        -2.375321         2.051092         0.012506
 C        -0.985164         1.843766         0.720801
 C        -0.832030         1.778068         3.097608
 C         0.317798         1.043636         2.355431
 H         0.384003        -0.226860        -0.866780
 H        -2.408181        -0.328355         0.677352
 H        -1.581271        -0.928464         2.289476
 H        -4.006096         1.341291         1.224997
 H        -3.261651         2.972507         1.784244
 H        -0.368996         2.728397         0.729671
 H        -0.617269         2.828983         3.112450
 H        -0.808519         1.465983         4.154774
 H         1.264820         1.641391         1.967933
 H         0.704029         0.154461         2.892303
