19
Iteration:  2210charge 0 multiplicity 1
 O         0.683012        -0.223433         0.149481
 C        -0.331465         0.542631         0.965035
 C        -1.628226        -0.137288         1.594401
 C        -1.897102         1.413343         1.962562
 C        -3.103414         1.926048         1.311426
 O        -2.320121         2.143461         0.044356
 C        -1.090922         1.832389         0.726369
 C        -0.836526         1.782868         2.996510
 C         0.464166         1.021446         2.261927
 H         0.209692        -0.723458        -0.561910
 H        -2.189978        -0.557253         0.729389
 H        -1.570794        -0.770429         2.466901
 H        -4.048320         1.275713         1.071451
 H        -3.617176         2.902560         1.693001
 H        -0.349966         2.802690         0.735865
 H        -0.597028         2.877273         2.994989
 H        -0.953530         1.415479         4.015319
 H         1.271239         1.716899         2.086509
 H         0.959675         0.158628         2.764936
