19
Iteration:    28charge 0 multiplicity 1
 O         0.533251        -0.167417         0.144861
 C        -0.284560         0.584049         1.002207
 C        -1.462927        -0.102645         1.733895
 C        -1.876729         1.414905         2.001538
 C        -3.155298         1.977394         1.223911
 O        -2.428003         1.861191        -0.092385
 C        -1.170835         1.824706         0.647824
 C        -0.754121         1.696232         3.106761
 C         0.458157         1.205600         2.184826
 H         1.441636        -0.009063         0.364673
 H        -2.082075        -0.809383         1.113149
 H        -1.148353        -0.584566         2.696828
 H        -4.068280         1.328555         1.249382
 H        -3.289762         3.045229         1.496610
 H        -0.578049         2.830984         0.498263
 H        -0.647128         2.756085         3.469779
 H        -0.853717         0.911105         3.957090
 H         1.080445         2.062187         1.750573
 H         1.237523         0.551105         2.658129
