19
Iteration:   807charge 0 multiplicity 1
 C        -0.116557        -0.039834         0.188549
 C         1.367631         0.070066        -0.146222
 C         2.529173         0.491703         0.722063
 C         3.249285         0.385676        -0.658964
 C         1.975411         0.915039        -1.318139
 O         4.749988         0.340633        -0.726784
 C         4.548356        -1.207684        -0.486811
 C         3.083512        -1.086869        -0.972041
 O         1.817916        -1.396097        -0.366449
 H        -0.124353        -0.984344         0.784550
 H        -0.418432         0.750940         0.869648
 H        -0.686437        -0.203910        -0.646103
 H         2.508154         1.575517         0.919180
 H         2.783857        -0.198141         1.542176
 H         1.817203         1.979979        -1.196811
 H         1.822180         0.490833        -2.299270
 H         5.247372        -1.713705        -1.182391
 H         4.835291        -1.317388         0.521187
 H         3.055461        -1.400572        -2.017296
