19
Iteration:   301
 C        -0.165938        -0.009257         0.203729
 C         1.285385        -0.064852        -0.119746
 C         2.497923         0.567911         0.799618
 C         3.286120         0.392148        -0.543519
 C         1.998009         1.006908        -1.358428
 O         4.760239         0.211231        -0.721769
 C         4.617482        -1.192942        -0.609264
 C         3.107553        -1.016210        -1.082942
 O         1.864597        -1.432050        -0.308601
 H        -0.157118        -0.312242         1.203756
 H        -0.709079         0.944795        -0.107635
 H        -0.720395        -0.758460        -0.453345
 H         2.395019         1.692438         0.788551
 H         2.740355        -0.109359         1.655145
 H         1.662893         2.050078        -0.980925
 H         1.997115         0.652274        -2.452722
 H         5.331383        -1.759791        -1.183904
 H         4.600782        -1.572693         0.472791
 H         2.918117        -1.077349        -2.180115
