19
Iteration:  2062
 C        -0.139559         0.069332         0.102453
 C         1.320606         0.043039        -0.184567
 C         2.551433         0.428343         0.762602
 C         3.229859         0.420951        -0.610307
 C         1.954914         0.902960        -1.339900
 O         4.643170         0.297744        -0.786572
 C         4.606665        -1.137545        -0.490239
 C         3.144010        -1.128472        -0.933691
 O         1.908680        -1.447776        -0.278426
 H        -0.376331        -0.129006         1.062577
 H        -0.418129         1.182200        -0.020736
 H        -0.726794        -0.499282        -0.599337
 H         2.485572         1.400364         1.347799
 H         3.172777        -0.302607         1.399831
 H         1.604247         1.889909        -1.119627
 H         1.844355         0.610917        -2.313818
 H         5.011520        -1.908192        -1.130485
 H         5.012774        -1.339424         0.528789
 H         3.114344        -1.264776        -2.045161
