19
Iteration:  3431charge 0 multiplicity 1
 C        -0.097773         0.042963         0.351949
 C         1.380515        -0.105691        -0.119843
 C         2.544948         0.570509         0.588666
 C         3.185116         0.388030        -0.801831
 C         1.880063         0.861310        -1.495883
 O         4.635346         0.295274        -0.784483
 C         4.555909        -1.048194        -0.219024
 C         3.246814        -1.164775        -0.873947
 O         1.879966        -1.449059        -0.473973
 H        -0.694089        -0.899292         0.180332
 H        -0.077476         0.098978         1.421594
 H        -0.514213         0.997563         0.070419
 H         2.329908         1.652116         0.797759
 H         3.020698         0.114876         1.489672
 H         1.701353         1.903416        -1.198421
 H         1.562518         0.679753        -2.503053
 H         5.505787        -1.634100        -0.478658
 H         4.703755        -1.013795         0.856701
 H         3.436415        -1.550904        -1.930136
