19
Iteration:  1992
 C        -0.060123        -0.031909         0.374941
 C         1.354762        -0.028308        -0.233790
 C         2.475858         0.522346         0.652773
 C         3.263937         0.381728        -0.730601
 C         1.963026         0.940231        -1.426721
 O         4.814009         0.293751        -0.691178
 C         4.524183        -1.157143        -0.367892
 C         3.123582        -1.089698        -1.024635
 O         1.798202        -1.326942        -0.414867
 H        -0.261005        -1.095555         0.890306
 H        -0.333646         0.590694         1.171923
 H        -0.882175         0.025507        -0.358385
 H         2.386787         1.544762         1.047395
 H         2.775367        -0.227018         1.416816
 H         1.683224         2.018025        -1.410560
 H         1.753676         0.281459        -2.350074
 H         5.377364        -1.894973        -0.684509
 H         4.554420        -1.196737         0.747721
 H         2.982694        -1.529532        -1.967171
