19
Iteration:  3621charge 0 multiplicity 1
 C        -0.080411        -0.001831         0.317399
 C         1.374906        -0.017227        -0.191480
 C         2.429558         0.694696         0.648095
 C         3.236549         0.344574        -0.807703
 C         1.862748         0.826029        -1.436570
 O         4.745726         0.330196        -0.764300
 C         4.614799        -1.182774        -0.329279
 C         3.159883        -1.105374        -0.867239
 O         1.917487        -1.477562        -0.389328
 H        -0.760266        -0.518276        -0.297205
 H        -0.132066        -0.442402         1.367301
 H        -0.310606         1.110473         0.382741
 H         2.322983         1.776748         0.571893
 H         2.625057         0.238469         1.631521
 H         1.525351         1.870692        -1.137925
 H         1.484922         0.514695        -2.408799
 H         5.414719        -1.670043        -0.782781
 H         4.577183        -1.398160         0.783843
 H         3.042230        -1.401633        -1.914096
