19
Iteration:  3447
 C        -0.081639         0.022253         0.403619
 C         1.320473        -0.008265        -0.233523
 C         2.510477         0.482043         0.621378
 C         3.247912         0.356822        -0.756754
 C         1.923492         0.763293        -1.442836
 O         4.749129         0.377837        -0.835769
 C         4.595235        -1.013116        -0.202259
 C         3.126276        -1.072607        -0.952020
 O         1.857197        -1.450565        -0.390899
 H        -0.639976        -0.826917         0.054266
 H        -0.044509         0.267829         1.532952
 H        -0.610711         0.797996        -0.204644
 H         2.498459         1.482255         1.051867
 H         2.691287        -0.319113         1.320279
 H         1.523608         1.789203        -1.490314
 H         1.899770         0.236166        -2.462730
 H         5.179111        -1.760469        -0.632049
 H         4.463781        -1.007009         0.891393
 H         3.205067        -1.434424        -1.948968
