19
Iteration:  2251
 C        -0.184197        -0.034888         0.133198
 C         1.381772         0.056742        -0.108111
 C         2.550835         0.534215         0.702103
 C         3.279212         0.370064        -0.634639
 C         1.963346         0.866660        -1.332057
 O         4.780990         0.315513        -0.810906
 C         4.568395        -1.180999        -0.437297
 C         3.112269        -1.091714        -0.921400
 O         1.809272        -1.354223        -0.355279
 H        -0.401473        -0.937202         0.786893
 H        -0.340408         0.711622         0.825283
 H        -0.797453        -0.074034        -0.768347
 H         2.449291         1.601833         1.097454
 H         2.679641        -0.115634         1.632351
 H         1.634295         1.896320        -1.275349
 H         1.852778         0.459209        -2.348625
 H         5.325351        -1.858980        -0.952808
 H         4.515056        -1.514625         0.593387
 H         3.153404        -1.359699        -2.011571
