19
Iteration:  2719
 C        -0.172899        -0.033068         0.110007
 C         1.332895         0.099989        -0.154206
 C         2.521153         0.431062         0.763188
 C         3.260463         0.371987        -0.672355
 C         1.926410         0.888169        -1.387651
 O         4.692670         0.345434        -0.843550
 C         4.597603        -1.086517        -0.402643
 C         3.206986        -1.154759        -0.900706
 O         1.855841        -1.392450        -0.247107
 H        -0.362865        -0.517704         1.128144
 H        -0.601595         0.979776         0.087851
 H        -0.493752        -0.689344        -0.676535
 H         2.753506         1.455909         0.948810
 H         2.786042        -0.235094         1.546071
 H         1.518349         1.962216        -1.403772
 H         1.886533         0.530566        -2.444117
 H         5.320092        -1.792042        -0.975840
 H         4.835341        -1.219714         0.679593
 H         3.079868        -1.495591        -1.960319
