19
Iteration:  3885charge 0 multiplicity 1
 C        -0.115113        -0.064656         0.226157
 C         1.380933         0.005652        -0.142023
 C         2.539027         0.614098         0.631072
 C         3.228417         0.343368        -0.787027
 C         1.902813         0.887833        -1.434143
 O         4.729531         0.351162        -0.772624
 C         4.626143        -1.090459        -0.341841
 C         3.112832        -1.186144        -0.853441
 O         1.849556        -1.410015        -0.296837
 H        -0.443823        -1.059979        -0.117932
 H        -0.323914         0.041698         1.265531
 H        -0.724844         0.760996        -0.156437
 H         2.435434         1.674048         0.832591
 H         2.811721         0.020607         1.455581
 H         1.661413         1.927604        -1.381911
 H         1.579438         0.548414        -2.488574
 H         5.306550        -1.761965        -0.960397
 H         4.679368        -1.376207         0.742713
 H         3.225751        -1.522887        -1.919963
