19
Iteration:  4502charge 0 multiplicity 1
 C        -0.064814        -0.073813         0.055789
 C         1.350692         0.009666        -0.162326
 C         2.475320         0.533494         0.680542
 C         3.220746         0.394928        -0.693727
 C         1.934435         0.793365        -1.328595
 O         4.751572         0.289522        -0.844291
 C         4.556305        -1.143891        -0.482989
 C         3.137224        -1.028958        -0.867307
 O         1.889962        -1.353336        -0.121891
 H        -0.669311        -0.790395        -0.520784
 H        -0.190593        -0.062783         1.169773
 H        -0.385572         0.944018        -0.404210
 H         2.393767         1.549153         1.135412
 H         2.595991        -0.211775         1.452742
 H         1.722479         1.923009        -1.166466
 H         1.703459         0.429513        -2.372917
 H         5.152282        -1.720005        -1.213671
 H         4.629125        -1.135864         0.613512
 H         3.040509        -1.297090        -1.901312
