19
Iteration:  4342
 C        -0.024328         0.038916         0.130689
 C         1.366696        -0.049073        -0.119051
 C         2.432303         0.698101         0.735560
 C         3.208833         0.332110        -0.683639
 C         2.028137         0.839990        -1.356180
 O         4.595515         0.288647        -0.880393
 C         4.681576        -1.081159        -0.460799
 C         3.153175        -1.175364        -0.862175
 O         1.833533        -1.469836        -0.229837
 H        -0.496019        -0.811536        -0.404486
 H        -0.215676        -0.187109         1.170052
 H        -0.529076         0.827071        -0.423286
 H         2.297920         1.816985         0.916449
 H         2.750754         0.239794         1.724364
 H         1.461616         1.794068        -1.196929
 H         1.915479         0.661282        -2.407616
 H         5.473671        -1.510372        -1.185156
 H         4.793377        -1.129557         0.633696
 H         3.094982        -1.624487        -1.929361
