19
Iteration:   403
 C        -0.089400         0.010550         0.248092
 C         1.365207        -0.010072        -0.164147
 C         2.610801         0.524709         0.738870
 C         3.248665         0.387593        -0.717865
 C         1.949553         0.869862        -1.315389
 O         4.767583         0.321976        -0.646029
 C         4.526478        -1.181915        -0.486664
 C         3.116073        -1.095388        -0.992857
 O         1.766493        -1.394020        -0.450873
 H        -0.329024        -1.004713         0.746162
 H        -0.218981         0.720821         1.035666
 H        -0.762310         0.130684        -0.605624
 H         2.488795         1.562712         0.912775
 H         2.905416         0.083946         1.673418
 H         1.447002         1.814160        -1.190490
 H         1.747508         0.667122        -2.411202
 H         5.236653        -1.839527        -1.056261
 H         4.661441        -1.369213         0.566041
 H         3.121559        -1.252418        -2.098165
