19
Iteration:  4012charge 0 multiplicity 1
 C        -0.129459        -0.052640         0.097740
 C         1.366744         0.026193        -0.074967
 C         2.476859         0.729709         0.734798
 C         3.235063         0.390520        -0.616501
 C         1.910851         0.732044        -1.317841
 O         4.661434         0.283574        -0.940369
 C         4.690916        -1.135387        -0.475914
 C         3.168802        -1.164225        -0.776067
 O         1.855211        -1.387747        -0.291583
 H        -0.458513         0.062448        -0.941255
 H        -0.319039        -1.131555         0.359253
 H        -0.484990         0.887826         0.587469
 H         2.106422         1.800831         0.703452
 H         2.781116         0.331153         1.724910
 H         1.646017         1.793117        -1.303470
 H         1.672133         0.301732        -2.267279
 H         5.445529        -1.532049        -1.075108
 H         4.930153        -1.316978         0.607864
 H         3.346491        -1.421685        -1.792398
