19
Iteration:   197charge 0 multiplicity 1
 C        -0.078023        -0.012085         0.412293
 C         1.341989         0.036890        -0.109472
 C         2.514679         0.408694         0.668196
 C         3.225625         0.342137        -0.733845
 C         2.058538         0.952161        -1.395438
 O         4.666005         0.350039        -0.758182
 C         4.583863        -1.160696        -0.335943
 C         3.139063        -1.097819        -1.016098
 O         1.785783        -1.386669        -0.508066
 H        -0.373052        -1.017270         0.795251
 H        -0.226199         0.700593         1.157137
 H        -0.731098         0.181638        -0.395803
 H         2.507461         1.443110         0.921623
 H         2.827582        -0.028650         1.571543
 H         1.841604         1.932620        -1.271731
 H         1.923653         0.675009        -2.430569
 H         5.297247        -1.816899        -0.886379
 H         4.632250        -1.297794         0.722135
 H         3.209422        -1.391249        -2.063568
