19
Iteration:  1550charge 0 multiplicity 1
 C        -0.148069         0.044849         0.197177
 C         1.378444        -0.064239        -0.134789
 C         2.592268         0.433506         0.773095
 C         3.257604         0.400795        -0.645849
 C         1.879353         0.917127        -1.252239
 O         4.738338         0.295000        -0.858447
 C         4.633658        -1.094403        -0.438623
 C         3.117411        -1.127389        -0.907274
 O         1.784761        -1.388140        -0.442365
 H        -0.413445        -0.897574         0.634230
 H        -0.440024         1.121163         0.578249
 H        -0.565603         0.046026        -0.783079
 H         2.529396         1.413737         1.267319
 H         2.953059        -0.372425         1.428915
 H         1.655624         2.034628        -1.104577
 H         1.613877         0.707754        -2.350146
 H         5.460872        -1.749421        -0.895970
 H         4.762299        -1.104490         0.668948
 H         3.115337        -1.409436        -1.988718
