19
Iteration:  1244charge 0 multiplicity 1
 C        -0.188605         0.038538         0.206728
 C         1.378436         0.026936        -0.104109
 C         2.488386         0.517285         0.754414
 C         3.303852         0.313727        -0.623137
 C         1.970869         0.915074        -1.312215
 O         4.788333         0.334079        -0.737143
 C         4.599777        -1.199426        -0.568472
 C         3.129351        -1.128878        -0.964436
 O         1.806768        -1.397309        -0.383232
 H        -0.437300        -0.418876         1.216428
 H        -0.716291         1.090966        -0.030579
 H        -0.737208        -0.594539        -0.518019
 H         2.353340         1.592355         0.975470
 H         2.549275        -0.055163         1.732004
 H         1.680678         1.915076        -1.119397
 H         1.849003         0.597562        -2.347467
 H         5.230412        -1.687616        -1.286256
 H         4.874375        -1.425353         0.469049
 H         3.223045        -1.377591        -2.084527
