19
Iteration:  4110charge 0 multiplicity 1
 C        -0.079860        -0.020742         0.351681
 C         1.320047        -0.041766        -0.172661
 C         2.496878         0.536847         0.635184
 C         3.219675         0.386574        -0.748395
 C         1.831374         0.856619        -1.530681
 O         4.779125         0.295212        -0.796712
 C         4.585363        -1.051302        -0.280539
 C         3.209414        -1.109358        -0.892868
 O         1.833041        -1.374454        -0.376286
 H        -0.541650        -0.957841         0.034850
 H         0.028605        -0.060066         1.417310
 H        -0.585908         0.815035        -0.122960
 H         2.438776         1.589106         1.071819
 H         2.840957        -0.161415         1.389318
 H         1.621982         1.859109        -1.518528
 H         1.715580         0.330217        -2.465849
 H         5.237627        -1.759855        -0.683805
 H         4.538239        -1.089890         0.909908
 H         3.486027        -1.550622        -1.867703
