19
Iteration:  1472charge 0 multiplicity 1
 C        -0.099849        -0.084431         0.328837
 C         1.345816         0.092806        -0.176191
 C         2.560765         0.541012         0.750740
 C         3.246514         0.392148        -0.649608
 C         1.945080         0.883119        -1.359008
 O         4.665323         0.260797        -0.684448
 C         4.542737        -1.238854        -0.454942
 C         3.148992        -1.053920        -1.042203
 O         1.850462        -1.334840        -0.468862
 H         0.096584        -0.246392         1.426020
 H        -0.568100         1.024222         0.143981
 H        -0.490830        -0.943604        -0.243726
 H         2.457771         1.572207         1.028604
 H         2.876764        -0.230445         1.443395
 H         1.705050         1.993181        -1.395706
 H         1.617599         0.423001        -2.398753
 H         5.367666        -1.672533        -1.084891
 H         4.674637        -1.519666         0.625764
 H         3.296010        -1.170928        -2.120649
