19
Iteration:   688
 C        -0.120877        -0.121069         0.397712
 C         1.333043        -0.027846        -0.158216
 C         2.473324         0.541501         0.622398
 C         3.318323         0.413207        -0.650527
 C         1.949306         1.014602        -1.415459
 O         4.775065         0.216905        -0.681838
 C         4.566662        -1.209716        -0.476715
 C         3.114267        -1.015992        -0.989267
 O         1.846295        -1.365350        -0.449183
 H        -0.238224        -0.339174         1.556458
 H        -0.641002         0.898590         0.167799
 H        -0.546478        -0.983919        -0.104443
 H         2.376441         1.613097         0.844458
 H         2.753803        -0.021077         1.519536
 H         1.716145         2.087850        -1.163890
 H         1.916957         0.874097        -2.499378
 H         5.263574        -1.940285        -0.992310
 H         4.400969        -1.320969         0.655426
 H         3.022506        -1.206546        -2.106721
