19
Iteration:  4987charge 0 multiplicity 1
 C        -0.111065         0.016492         0.096642
 C         1.408077        -0.044830        -0.212608
 C         2.503590         0.638782         0.733520
 C         3.232552         0.421400        -0.610380
 C         1.998244         0.795651        -1.318204
 O         4.653633         0.292760        -0.810429
 C         4.706960        -1.133986        -0.429804
 C         3.165906        -1.141948        -0.875082
 O         1.764023        -1.457610        -0.276157
 H        -0.616233        -0.857949        -0.327446
 H        -0.427597         0.231939         1.155021
 H        -0.463694         0.925931        -0.582167
 H         2.219789         1.718223         0.670527
 H         2.648722         0.168415         1.700207
 H         1.594728         1.856906        -1.175116
 H         1.734454         0.627319        -2.393974
 H         5.396896        -1.545998        -1.242857
 H         4.942491        -1.235505         0.692135
 H         3.008691        -1.453341        -1.970081
