19
Iteration:  1579
 C        -0.148375         0.007924         0.170429
 C         1.357705        -0.004185        -0.139847
 C         2.493458         0.592865         0.810241
 C         3.269055         0.297983        -0.632845
 C         2.013590         0.955377        -1.249895
 O         4.673540         0.300928        -0.827576
 C         4.603425        -1.144557        -0.533415
 C         3.107528        -1.147175        -0.949082
 O         1.859418        -1.428632        -0.389183
 H        -0.339916        -1.131054         0.331551
 H        -0.430751         0.652028         0.877043
 H        -0.694606         0.230662        -0.797019
 H         2.401803         1.596917         1.192392
 H         2.799685         0.034747         1.703469
 H         1.938786         2.017783        -0.971697
 H         1.739017         0.664105        -2.288152
 H         5.401884        -1.656489        -1.080122
 H         4.844899        -1.171323         0.523631
 H         3.024303        -1.470563        -1.988909
