19
Iteration:  1985
 C        -0.044532        -0.053603         0.339390
 C         1.359922         0.012304        -0.166881
 C         2.495809         0.527687         0.636402
 C         3.243248         0.424785        -0.746152
 C         1.980566         0.892104        -1.435000
 O         4.770554         0.285084        -0.668813
 C         4.483352        -1.146886        -0.370173
 C         3.136583        -1.140485        -1.029520
 O         1.831879        -1.365199        -0.414244
 H        -0.089884        -0.957264         0.897315
 H        -0.047475         0.721746         1.191522
 H        -0.895090         0.078259        -0.277470
 H         2.245296         1.589111         0.906439
 H         2.624938        -0.122932         1.573143
 H         1.859696         1.978041        -1.319693
 H         1.731221         0.606747        -2.416747
 H         5.391415        -1.591275        -0.768721
 H         4.243874        -1.386920         0.681123
 H         3.012105        -1.399732        -2.137556
