19
Iteration:  2442
 C        -0.025309         0.132695         0.288431
 C         1.383802        -0.053546        -0.202835
 C         2.511687         0.527466         0.724389
 C         3.197579         0.341924        -0.675297
 C         1.975498         0.747575        -1.439330
 O         4.672334         0.356848        -0.770327
 C         4.625674        -1.070661        -0.307773
 C         3.135786        -1.122728        -0.918382
 O         1.772385        -1.453917        -0.468942
 H        -0.315059        -0.802565         0.654322
 H        -0.156924         0.788098         1.203236
 H        -0.739604         0.319071        -0.538385
 H         2.425032         1.572471         0.834216
 H         2.978956         0.126791         1.558413
 H         1.785560         1.806507        -1.297421
 H         1.783953         0.452012        -2.503401
 H         5.412359        -1.573845        -0.780869
 H         4.517218        -1.259561         0.800065
 H         3.103367        -1.487021        -1.994619
