19
Iteration:   526charge 0 multiplicity 1
 C        -0.107069        -0.018629         0.357201
 C         1.367660         0.047726        -0.195684
 C         2.583137         0.515916         0.721093
 C         3.212073         0.331362        -0.628107
 C         2.092593         0.908469        -1.371580
 O         4.651277         0.298650        -0.735936
 C         4.566691        -1.159233        -0.405691
 C         3.118423        -1.060177        -1.050810
 O         1.818458        -1.396624        -0.497788
 H        -0.095387        -0.665085         1.288673
 H        -0.387232         1.063958         0.631323
 H        -0.831688        -0.593515        -0.113667
 H         2.318698         1.543230         0.932142
 H         2.847650        -0.178076         1.527769
 H         1.651306         1.988932        -1.187526
 H         1.872619         0.507438        -2.359335
 H         5.140913        -1.884744        -0.910603
 H         4.372819        -1.295855         0.676980
 H         3.165003        -1.277191        -2.128446
