19
Iteration:  1237
 C        -0.194597        -0.023825         0.228108
 C         1.274511         0.071242        -0.111531
 C         2.460450         0.525681         0.759977
 C         3.345493         0.357120        -0.644075
 C         2.006571         0.930545        -1.313090
 O         4.761890         0.317292        -0.728971
 C         4.614718        -1.221427        -0.576064
 C         3.154833        -1.140150        -0.979260
 O         1.837535        -1.412426        -0.365712
 H        -0.493138        -0.370201         1.167859
 H        -0.550274         0.993875         0.207408
 H        -0.784603        -0.463687        -0.626805
 H         2.464674         1.652739         0.889252
 H         2.737113        -0.026803         1.676354
 H         1.761792         2.014706        -1.275126
 H         1.783784         0.814244        -2.373345
 H         5.260306        -1.843986        -1.230825
 H         4.707756        -1.426360         0.490890
 H         3.152633        -1.391105        -2.032330
