19
Iteration:  3034charge 0 multiplicity 1
 C        -0.171000        -0.048979         0.102326
 C         1.355662         0.022098        -0.119019
 C         2.561404         0.554098         0.702113
 C         3.255806         0.382423        -0.675417
 C         1.880658         0.881655        -1.411706
 O         4.648711         0.304431        -0.711340
 C         4.699588        -1.140959        -0.541428
 C         3.135459        -1.098374        -0.857425
 O         1.866617        -1.377977        -0.242034
 H        -0.511783         0.088374         1.176860
 H        -0.646344         0.779881        -0.542475
 H        -0.386441        -1.002723        -0.372749
 H         2.540608         1.581409         1.297516
 H         2.928362        -0.215442         1.418978
 H         1.745531         1.892010        -1.072717
 H         1.734158         0.487176        -2.460821
 H         5.178832        -1.723921        -1.327831
 H         5.038896        -1.510001         0.433440
 H         3.090624        -1.394906        -1.938293
