19
Iteration:   568
 C        -0.160304        -0.004832         0.224536
 C         1.306320         0.041617        -0.132220
 C         2.617084         0.552246         0.652232
 C         3.229330         0.399429        -0.719238
 C         1.884512         0.908903        -1.298531
 O         4.743025         0.224749        -0.703884
 C         4.613945        -1.230215        -0.445691
 C         3.135241        -1.030412        -0.948895
 O         1.837736        -1.396470        -0.402840
 H        -0.336118        -1.115775         0.646171
 H        -0.455541         0.652341         1.119012
 H        -0.825930        -0.106455        -0.612894
 H         2.474058         1.594678         0.886971
 H         3.177579        -0.024093         1.379763
 H         1.763353         2.045363        -1.071259
 H         1.590296         0.776273        -2.342313
 H         5.393166        -1.629794        -1.152387
 H         4.740749        -1.353612         0.666669
 H         3.241896        -1.308895        -2.055506
