19
Iteration:  2158charge 0 multiplicity 1
 C        -0.111661        -0.020284         0.261208
 C         1.333172        -0.015729        -0.094718
 C         2.629220         0.536865         0.639193
 C         3.211390         0.351926        -0.702304
 C         1.996095         0.890717        -1.306797
 O         4.699541         0.303495        -0.777809
 C         4.557337        -1.107312        -0.281451
 C         3.142559        -1.126083        -0.957718
 O         1.759718        -1.419296        -0.566211
 H        -0.308035        -0.588402         1.192804
 H        -0.211961         1.083979         0.604583
 H        -0.745152        -0.318075        -0.545318
 H         2.305750         1.525162         0.911646
 H         3.064338         0.093285         1.509111
 H         1.896749         2.000356        -1.034806
 H         1.629512         0.662771        -2.293760
 H         5.392725        -1.708235        -0.700927
 H         4.652342        -1.198014         0.827335
 H         3.443153        -1.401388        -1.923491
