19
Iteration:   758charge 0 multiplicity 1
 C        -0.154481         0.139615         0.218310
 C         1.330538         0.074051        -0.142988
 C         2.499030         0.407071         0.753904
 C         3.220762         0.281230        -0.698788
 C         1.958954         0.885264        -1.251611
 O         4.689262         0.361328        -0.821514
 C         4.599177        -1.107082        -0.465115
 C         3.162706        -1.166665        -0.948151
 O         1.935648        -1.500302        -0.397678
 H        -0.647355        -0.695737         0.666176
 H        -0.201699         1.047175         0.825115
 H        -0.561175         0.262875        -0.863146
 H         2.379153         1.544195         0.965712
 H         2.620982        -0.333621         1.570359
 H         1.716630         1.863197        -0.825091
 H         1.612803         0.761839        -2.315775
 H         5.433593        -1.551756        -0.985955
 H         4.667201        -1.132844         0.664112
 H         3.155104        -1.286381        -2.041233
