19
Iteration:  4457
 C        -0.068450         0.029270         0.246099
 C         1.367749        -0.038774        -0.176280
 C         2.519757         0.607272         0.677291
 C         3.234118         0.296017        -0.710513
 C         1.950195         0.762038        -1.447058
 O         4.665244         0.383190        -0.844056
 C         4.684940        -1.075086        -0.319924
 C         3.120960        -1.178655        -0.788996
 O         1.771824        -1.411325        -0.384864
 H        -0.724208        -0.025526        -0.635660
 H        -0.222926        -0.856873         0.870321
 H        -0.467476         1.007334         0.668451
 H         2.556070         1.697508         0.919865
 H         2.970534         0.061981         1.473615
 H         1.796339         1.842266        -1.189611
 H         1.656687         0.522405        -2.496628
 H         5.284636        -1.695655        -0.955314
 H         4.757754        -1.011022         0.773582
 H         3.254675        -1.495408        -1.793371
