19
Iteration:  2692charge 0 multiplicity 1
 C        -0.104008         0.086089         0.129609
 C         1.378120        -0.066514        -0.143611
 C         2.531307         0.547931         0.709714
 C         3.254024         0.345588        -0.659942
 C         1.939148         0.762666        -1.360366
 O         4.600235         0.368310        -0.797224
 C         4.694456        -1.035367        -0.445388
 C         3.176816        -1.172864        -0.847558
 O         1.796417        -1.462412        -0.319203
 H        -0.597114        -0.657132         0.706105
 H        -0.161701         1.100722         0.556162
 H        -0.535503         0.178783        -0.911742
 H         2.488502         1.628659         1.010833
 H         2.876304        -0.143490         1.540062
 H         1.522015         1.749889        -1.236355
 H         1.833973         0.544388        -2.425969
 H         5.360323        -1.681627        -0.952107
 H         4.931792        -1.100953         0.619495
 H         3.062993        -1.304979        -1.887187
