19
Iteration:  3702charge 0 multiplicity 1
 C        -0.186712         0.078836         0.140395
 C         1.377119        -0.085894        -0.101326
 C         2.503662         0.568466         0.708231
 C         3.198059         0.398358        -0.723882
 C         1.842813         0.807346        -1.375726
 O         4.800301         0.333418        -0.920726
 C         4.676788        -1.110977        -0.351935
 C         3.167874        -1.124738        -0.845715
 O         1.872842        -1.431701        -0.246568
 H        -0.898431        -0.564965        -0.572959
 H        -0.501851        -0.218043         1.148513
 H        -0.617288         1.054059        -0.104248
 H         2.427276         1.591775         1.084202
 H         2.858638        -0.076955         1.512305
 H         1.571240         1.839492        -1.369944
 H         1.633513         0.565887        -2.454629
 H         5.259587        -1.784958        -1.064623
 H         4.946417        -1.177557         0.650631
 H         3.172404        -1.609177        -1.807842
