19
Iteration:  2561
 C        -0.069486         0.102610         0.140594
 C         1.380031        -0.086150        -0.140778
 C         2.547288         0.527911         0.702487
 C         3.257475         0.336563        -0.655386
 C         2.011257         0.801766        -1.360347
 O         4.591724         0.405872        -0.765714
 C         4.685310        -1.052819        -0.457019
 C         3.114129        -1.209112        -0.901236
 O         1.789062        -1.449631        -0.330022
 H        -0.347893         0.284323         1.138059
 H        -0.398096         1.081262        -0.342451
 H        -0.748917        -0.673092        -0.206320
 H         2.558287         1.617716         1.025857
 H         2.747097        -0.081262         1.597362
 H         1.807286         1.844589        -1.200573
 H         1.638991         0.397047        -2.338479
 H         5.435959        -1.434265        -1.101550
 H         4.678666        -1.379471         0.641522
 H         2.993064        -1.584496        -1.877405
