19
Iteration:  2769charge 0 multiplicity 1
 C        -0.073488        -0.051715         0.330243
 C         1.329029         0.057734        -0.189217
 C         2.511685         0.561570         0.644974
 C         3.252762         0.434984        -0.652549
 C         1.906879         0.788015        -1.442399
 O         4.717112         0.274183        -0.702294
 C         4.551942        -1.159130        -0.330886
 C         3.131058        -1.056552        -1.010585
 O         1.885119        -1.380229        -0.456304
 H        -0.086615         0.147564         1.421736
 H        -0.661993         0.763579        -0.049654
 H        -0.393454        -1.137338         0.163035
 H         2.375592         1.597703         1.082575
 H         2.840324        -0.257918         1.433861
 H         1.795908         1.889418        -1.373640
 H         1.709895         0.355254        -2.427362
 H         5.390400        -1.669021        -0.824992
 H         4.526891        -1.285474         0.751382
 H         3.119529        -1.179403        -2.096476
