19
Iteration:  2355charge 0 multiplicity 1
 C        -0.066484        -0.069348         0.227933
 C         1.338796        -0.030984        -0.167636
 C         2.491800         0.644479         0.700009
 C         3.273780         0.370377        -0.612612
 C         2.022217         0.927008        -1.289169
 O         4.727537         0.264117        -0.747679
 C         4.562636        -1.162019        -0.464907
 C         3.079587        -1.108036        -0.999700
 O         1.814707        -1.406591        -0.376624
 H        -0.241627        -0.213836         1.241346
 H        -0.469153         0.903034        -0.223870
 H        -0.567489        -0.831044        -0.437164
 H         2.393703         1.690226         0.821015
 H         2.805794         0.191574         1.586323
 H         1.785034         2.002740        -1.239311
 H         1.857899         0.569547        -2.336818
 H         5.315804        -1.703026        -0.961689
 H         4.481983        -1.335106         0.623050
 H         3.104898        -1.430674        -2.065120
