19
Iteration:  1129charge 0 multiplicity 1
 C        -0.060263         0.071106         0.207492
 C         1.340837        -0.023466        -0.146697
 C         2.572971         0.443048         0.777223
 C         3.249752         0.344111        -0.614577
 C         2.038825         0.933947        -1.370061
 O         4.655732         0.378171        -0.716172
 C         4.590168        -1.124348        -0.451193
 C         3.039365        -1.169379        -0.989781
 O         1.800697        -1.433591        -0.459683
 H        -0.111673        -0.469776         1.161834
 H        -0.153694         1.130322         0.374009
 H        -0.867137        -0.337174        -0.544779
 H         2.539338         1.371647         1.321836
 H         2.824432        -0.307686         1.503432
 H         1.642972         2.042110        -1.259867
 H         2.038924         0.477383        -2.403471
 H         5.329994        -1.659038        -1.105620
 H         4.739129        -1.352394         0.631809
 H         3.020682        -1.284405        -2.073424
