19
Iteration:  2583charge 0 multiplicity 1
 C        -0.067335         0.086669         0.235292
 C         1.349901        -0.053541        -0.184236
 C         2.488949         0.518251         0.695112
 C         3.207084         0.432637        -0.675158
 C         1.932229         0.809094        -1.446957
 O         4.719288         0.314174        -0.819928
 C         4.598867        -1.107463        -0.360350
 C         3.151621        -1.081302        -0.857023
 O         1.863715        -1.450380        -0.358160
 H        -0.293396        -0.187453         1.222742
 H        -0.631552         1.053943         0.107820
 H        -0.533718        -0.733783        -0.339629
 H         2.439662         1.517333         1.205242
 H         2.768698        -0.168886         1.529751
 H         1.521661         1.806632        -1.383884
 H         1.995609         0.419729        -2.502906
 H         5.081788        -1.825002        -0.983084
 H         4.770104        -1.354606         0.754481
 H         3.189773        -1.175625        -1.901109
