19
Iteration:  1566
 C        -0.150296         0.002786         0.105036
 C         1.359665         0.018753        -0.072282
 C         2.538728         0.503694         0.749087
 C         3.222074         0.346534        -0.656648
 C         1.947953         0.966371        -1.198299
 O         4.647140         0.302976        -0.889634
 C         4.708941        -1.189143        -0.410650
 C         3.166345        -1.115460        -0.913966
 O         1.826681        -1.425420        -0.428949
 H        -0.593693        -0.888778         0.672862
 H        -0.361470         0.707100         0.931782
 H        -0.817200         0.251820        -0.811423
 H         2.459926         1.616955         0.782128
 H         2.851512        -0.070158         1.658658
 H         1.768948         1.957512        -0.901197
 H         1.679935         0.829832        -2.193412
 H         5.164239        -1.787395        -1.133055
 H         5.012139        -1.381580         0.612554
 H         3.303332        -1.257673        -2.010091
