19
Iteration:  1290
 C        -0.109136         0.113623         0.243273
 C         1.271849         0.004966        -0.129106
 C         2.479173         0.368889         0.716834
 C         3.280052         0.341899        -0.701389
 C         2.006373         0.911020        -1.260911
 O         4.728635         0.331838        -0.799747
 C         4.602374        -1.084278        -0.392694
 C         3.102227        -1.104997        -1.046646
 O         1.849370        -1.447531        -0.408496
 H        -0.204065        -0.067090         1.303519
 H        -0.673053         1.029699        -0.260891
 H        -0.790113        -0.740244        -0.202692
 H         2.500057         1.490645         1.050443
 H         3.015541        -0.198074         1.552995
 H         1.903648         1.946626        -0.885699
 H         1.803174         0.715801        -2.320601
 H         5.335566        -1.744674        -0.892491
 H         4.538273        -1.293324         0.675359
 H         3.297399        -1.478479        -2.102111
