19
Iteration:  1828charge 0 multiplicity 1
 C        -0.040768        -0.018482         0.359732
 C         1.362906         0.005618        -0.180069
 C         2.482841         0.529271         0.613619
 C         3.220351         0.380565        -0.713430
 C         1.995789         0.948263        -1.335256
 O         4.675004         0.303022        -0.719226
 C         4.538188        -1.114294        -0.361378
 C         3.186932        -1.184821        -0.978956
 O         1.794134        -1.449369        -0.483044
 H        -0.246162        -0.794248         1.141893
 H        -0.119017         0.879189         0.816388
 H        -0.723838        -0.031393        -0.515177
 H         2.501675         1.642907         0.752088
 H         2.816569         0.076430         1.556932
 H         1.694782         1.894270        -0.962644
 H         2.041324         0.966174        -2.434566
 H         5.380260        -1.663182        -0.827046
 H         4.593302        -1.383620         0.719734
 H         3.165181        -1.379450        -2.125514
