19
Iteration:  3551
 C        -0.188506        -0.033900         0.205512
 C         1.320729        -0.055094        -0.119637
 C         2.517600         0.728940         0.652317
 C         3.289614         0.318222        -0.689369
 C         1.915412         0.837500        -1.418940
 O         4.685649         0.299369        -0.875362
 C         4.733283        -1.057307        -0.343423
 C         3.149842        -1.156222        -0.875347
 O         1.809606        -1.472688        -0.299632
 H        -0.879991        -0.098964        -0.693879
 H        -0.415816        -0.882593         0.811253
 H        -0.251306         0.811077         0.824071
 H         2.500364         1.859769         0.733776
 H         2.771783         0.171365         1.576207
 H         1.734218         1.850137        -1.169862
 H         1.690128         0.681380        -2.490330
 H         5.647703        -1.613284        -0.845491
 H         4.858321        -0.944007         0.778572
 H         3.132606        -1.628890        -1.916837
