19
Iteration:  2226charge 0 multiplicity 1
 C        -0.076609        -0.008482         0.079562
 C         1.413724        -0.011170        -0.080678
 C         2.527037         0.671735         0.723866
 C         3.171616         0.333479        -0.646441
 C         1.977036         0.954550        -1.344389
 O         4.626984         0.262275        -0.727534
 C         4.626476        -1.173762        -0.488649
 C         3.110275        -1.143557        -0.906074
 O         1.848234        -1.442633        -0.344339
 H        -0.403566        -0.918553         0.385577
 H        -0.202393         0.634283         1.009583
 H        -0.696882         0.300530        -0.826379
 H         2.282230         1.730734         0.958756
 H         3.023764         0.169267         1.581439
 H         1.967427         2.009830        -1.233204
 H         1.753668         0.573182        -2.333571
 H         5.260773        -1.630174        -1.225507
 H         4.875424        -1.692339         0.467716
 H         3.107623        -1.343454        -1.932996
