19
Iteration:  4898
 C        -0.050376        -0.102410         0.347122
 C         1.325912         0.033041        -0.237307
 C         2.502688         0.653377         0.657520
 C         3.202345         0.348018        -0.692463
 C         2.013029         0.780597        -1.546968
 O         4.747179         0.293404        -0.766136
 C         4.506204        -1.103258        -0.252151
 C         3.144565        -1.104296        -0.941581
 O         1.838845        -1.371630        -0.390525
 H        -0.878988         0.152193        -0.330198
 H        -0.246825        -1.078645         0.760203
 H        -0.194723         0.753843         1.104699
 H         2.340424         1.697788         0.883552
 H         2.830049         0.236567         1.605686
 H         1.758206         1.877596        -1.543064
 H         1.875344         0.274359        -2.515408
 H         5.308491        -1.762987        -0.608238
 H         4.304676        -0.975719         0.813312
 H         3.365987        -1.560088        -1.937225
