19
Iteration:  1402charge 0 multiplicity 1
 C        -0.091832         0.101996         0.174071
 C         1.404509         0.031158        -0.076495
 C         2.515499         0.472612         0.819458
 C         3.272197         0.264826        -0.630393
 C         2.010193         0.814167        -1.298362
 O         4.624628         0.385255        -0.834497
 C         4.660665        -1.096172        -0.483476
 C         3.118926        -1.110871        -0.959334
 O         1.778821        -1.419590        -0.423413
 H        -0.403177        -0.914897         0.645908
 H        -0.351981         0.862601         0.910122
 H        -0.661138         0.269759        -0.871942
 H         2.366481         1.557744         1.148597
 H         2.780979        -0.274661         1.599937
 H         1.803580         1.907456        -1.429347
 H         1.682997         0.288686        -2.229386
 H         5.419950        -1.643140        -1.068651
 H         4.701043        -1.311171         0.590999
 H         3.093108        -1.498204        -1.973575
