19
Iteration:  3163charge 0 multiplicity 1
 C        -0.182818        -0.016183         0.124372
 C         1.383817        -0.068326        -0.127776
 C         2.527023         0.619338         0.730964
 C         3.221626         0.379049        -0.674419
 C         1.958432         0.830344        -1.419899
 O         4.726596         0.325535        -0.810955
 C         4.613828        -1.061677        -0.445213
 C         3.186057        -1.144263        -0.919962
 O         1.847661        -1.455661        -0.208783
 H        -0.652906        -1.022387         0.052853
 H        -0.297899         0.506468         1.098490
 H        -0.762919         0.544862        -0.578595
 H         2.211530         1.716717         0.755957
 H         2.859182         0.304387         1.741555
 H         1.603447         1.855089        -1.385349
 H         1.805522         0.591774        -2.489879
 H         5.381676        -1.644598        -1.022493
 H         4.670377        -1.253563         0.640884
 H         3.073587        -1.555759        -1.965821
