19
Iteration:  3341
 C        -0.137668         0.019139         0.044957
 C         1.379639         0.017401        -0.034663
 C         2.546684         0.667261         0.655701
 C         3.238100         0.307445        -0.675394
 C         1.847017         0.758297        -1.423433
 O         4.604680         0.366239        -0.865282
 C         4.701639        -1.085768        -0.396154
 C         3.161392        -1.218360        -0.822957
 O         1.892854        -1.439718        -0.224271
 H        -0.628164         0.409140        -0.777051
 H        -0.614622        -0.908173         0.238227
 H        -0.400705         0.601020         0.949920
 H         2.556745         1.737245         0.782439
 H         2.988970         0.275981         1.599527
 H         1.647531         1.828297        -1.314327
 H         1.711323         0.339912        -2.379152
 H         5.495266        -1.601018        -0.924711
 H         4.952251        -1.027969         0.686865
 H         3.057213        -1.642329        -1.859091
