19
Iteration:  4780charge 0 multiplicity 1
 C        -0.046678        -0.094002         0.238206
 C         1.350390         0.147280        -0.176637
 C         2.490902         0.665163         0.716434
 C         3.223677         0.349043        -0.716609
 C         1.967403         0.760134        -1.431828
 O         4.662042         0.292392        -0.725282
 C         4.663179        -1.113133        -0.365677
 C         3.102115        -1.165651        -0.932269
 O         1.839423        -1.379177        -0.391424
 H        -0.398956        -1.064452        -0.070326
 H        -0.159814        -0.027442         1.323093
 H        -0.734597         0.739370        -0.131906
 H         2.587487         1.746795         1.057152
 H         2.736319        -0.007154         1.556636
 H         1.749224         1.861414        -1.463494
 H         1.685811         0.369319        -2.414326
 H         5.342243        -1.742248        -0.944780
 H         4.638405        -1.186778         0.693757
 H         3.088261        -1.459532        -1.976283
