19
Iteration:  4125charge 0 multiplicity 1
 C        -0.016903        -0.059870         0.247103
 C         1.405890         0.025060        -0.203553
 C         2.528843         0.620726         0.619675
 C         3.242262         0.361044        -0.766202
 C         1.946100         0.815513        -1.396247
 O         4.648615         0.339518        -0.793040
 C         4.579965        -1.089349        -0.282423
 C         3.088087        -1.150203        -0.933105
 O         1.878137        -1.440752        -0.308991
 H        -0.669440        -0.953315        -0.114762
 H        -0.202618        -0.154954         1.383935
 H        -0.664433         0.826100        -0.060623
 H         2.310301         1.741572         0.656753
 H         2.801167         0.006849         1.528283
 H         1.624219         1.890585        -1.147651
 H         1.641863         0.641637        -2.451893
 H         5.489731        -1.657594        -0.675803
 H         4.571899        -1.109904         0.797756
 H         2.953173        -1.463559        -1.966851
