19
Iteration:  4420charge 0 multiplicity 1
 C        -0.089176         0.022006         0.423586
 C         1.332038         0.001305        -0.206275
 C         2.571399         0.656046         0.584901
 C         3.190707         0.360769        -0.735720
 C         1.950803         0.763940        -1.562535
 O         4.694563         0.318984        -0.765195
 C         4.527903        -1.067424        -0.239744
 C         3.157995        -1.139096        -0.923296
 O         1.890193        -1.496634        -0.411019
 H        -0.864716         0.188899        -0.348105
 H        -0.287988        -0.929213         0.915006
 H        -0.204769         0.830894         1.105935
 H         2.274014         1.677858         0.764645
 H         2.913835         0.136614         1.529283
 H         1.662644         1.730628        -1.247253
 H         1.827727         0.595466        -2.602356
 H         5.365813        -1.761478        -0.501107
 H         4.559307        -1.026493         0.875972
 H         3.269049        -1.352024        -2.028705
