19
Iteration:  4163
 C        -0.155516        -0.037931         0.088293
 C         1.315474        -0.003635        -0.136202
 C         2.464176         0.593716         0.696749
 C         3.271952         0.416704        -0.698288
 C         1.913351         0.731122        -1.402289
 O         4.738076         0.289256        -0.883300
 C         4.745315        -1.096800        -0.454557
 C         3.089765        -1.059461        -0.823645
 O         1.832983        -1.362961        -0.153588
 H        -0.491953        -0.361717        -0.810120
 H        -0.316745        -0.655040         0.898780
 H        -0.456507         0.936686         0.392981
 H         2.351009         1.532581         1.091951
 H         2.807023         0.064842         1.526974
 H         1.536788         1.731655        -1.301098
 H         1.737220         0.290843        -2.391406
 H         5.406649        -1.579488        -1.100177
 H         4.974470        -1.355893         0.609400
 H         3.150437        -1.521810        -1.821216
