19
Iteration:  1298charge 0 multiplicity 1
 C        -0.139910         0.024705         0.267502
 C         1.368927         0.059692        -0.203032
 C         2.472009         0.420360         0.693333
 C         3.286429         0.302438        -0.704230
 C         1.947346         0.947132        -1.245001
 O         4.725319         0.267759        -0.784344
 C         4.595776        -1.088949        -0.413041
 C         3.148666        -1.091775        -1.018832
 O         1.815776        -1.428115        -0.424338
 H        -0.193828        -0.010553         1.379405
 H        -0.514353         1.120340         0.014263
 H        -0.689238        -0.748303        -0.173744
 H         2.444678         1.436775         1.042181
 H         2.794859        -0.242082         1.538091
 H         1.878097         1.916953        -0.850850
 H         1.772561         0.712167        -2.266257
 H         5.471087        -1.632172        -0.702414
 H         4.584041        -1.024408         0.686928
 H         3.212320        -1.426763        -2.115293
