19
Iteration:  3942charge 0 multiplicity 1
 C        -0.066482         0.021655         0.380712
 C         1.418128        -0.096803        -0.158597
 C         2.544292         0.711627         0.539825
 C         3.221171         0.335329        -0.717823
 C         1.902295         0.768014        -1.412602
 O         4.665839         0.343658        -0.750089
 C         4.624172        -1.044251        -0.253531
 C         3.160471        -1.149538        -0.862724
 O         1.788558        -1.465331        -0.512135
 H        -0.736476        -0.059601        -0.498273
 H        -0.114809        -0.909281         0.904274
 H        -0.240483         0.986910         0.788556
 H         2.207709         1.714565         0.650882
 H         2.970175         0.326616         1.456092
 H         1.550213         1.843032        -1.330154
 H         1.815717         0.222351        -2.403412
 H         5.373255        -1.862710        -0.673530
 H         4.575931        -1.091764         0.871483
 H         3.248008        -1.353677        -2.014811
