19
Iteration:  4544charge 0 multiplicity 1
 C        -0.117367        -0.031626         0.297441
 C         1.360842         0.038557        -0.173145
 C         2.473035         0.609426         0.621708
 C         3.284963         0.292738        -0.667577
 C         1.944750         0.804235        -1.332750
 O         4.691175         0.321407        -0.751553
 C         4.688310        -1.078348        -0.367935
 C         3.115153        -1.193844        -0.958823
 O         1.814710        -1.368837        -0.403377
 H        -0.571578        -0.933135        -0.130659
 H        -0.225138         0.031588         1.401646
 H        -0.603274         0.900649        -0.182102
 H         2.265207         1.713070         0.519953
 H         2.731932         0.292485         1.606046
 H         1.814150         1.901785        -1.396663
 H         1.768096         0.358124        -2.311062
 H         5.324068        -1.655551        -1.096387
 H         4.926945        -1.253425         0.817406
 H         3.049319        -1.467697        -2.032196
