19
Iteration:  2167charge 0 multiplicity 1
 C        -0.059258         0.069328         0.277059
 C         1.368766        -0.057806        -0.104674
 C         2.584116         0.551180         0.688124
 C         3.220374         0.334288        -0.687846
 C         1.951371         0.906902        -1.329263
 O         4.645485         0.321473        -0.811246
 C         4.620115        -1.137381        -0.230225
 C         3.117357        -1.118659        -0.908881
 O         1.814042        -1.445459        -0.582118
 H        -0.353384        -0.898984         0.967283
 H        -0.559659         1.010019         0.686248
 H        -0.620809        -0.084300        -0.638558
 H         2.345272         1.568932         0.917468
 H         2.945509        -0.011164         1.530584
 H         1.903878         2.095913        -1.239530
 H         1.854431         0.620330        -2.417403
 H         5.169018        -1.642917        -1.039026
 H         4.741837        -1.413324         0.832955
 H         3.156078        -1.413019        -2.019831
