19
Iteration:  3490charge 0 multiplicity 1
 C        -0.199068        -0.040817         0.151482
 C         1.315798         0.017704        -0.112234
 C         2.542387         0.629549         0.594371
 C         3.290425         0.338907        -0.685079
 C         1.928412         0.860261        -1.350468
 O         4.681152         0.341211        -0.784840
 C         4.655024        -1.136917        -0.451665
 C         3.130479        -1.122701        -0.838005
 O         1.908627        -1.510216        -0.258478
 H        -0.779715        -0.815041        -0.316802
 H        -0.407358        -0.016779         1.326101
 H        -0.786316         0.835207        -0.229218
 H         2.471808         1.722704         0.520816
 H         2.744423         0.380204         1.620484
 H         1.762446         1.927338        -1.126879
 H         1.559186         0.571848        -2.400226
 H         5.169760        -1.564320        -1.243480
 H         5.245835        -1.052803         0.455784
 H         3.195478        -1.420039        -1.865331
