19
Iteration:  1883charge 0 multiplicity 1
 C        -0.149928        -0.002774         0.127433
 C         1.375407         0.015079        -0.153855
 C         2.533545         0.499864         0.810871
 C         3.261348         0.411814        -0.656741
 C         1.935367         0.891409        -1.270586
 O         4.744676         0.301611        -0.752210
 C         4.619719        -1.192317        -0.521944
 C         3.139724        -1.116345        -1.017667
 O         1.811213        -1.391927        -0.325712
 H        -0.468092        -0.106721         1.208359
 H        -0.460517         0.887763        -0.254304
 H        -0.719906        -0.742276        -0.444273
 H         2.391241         1.600565         1.029669
 H         3.019837        -0.077119         1.609316
 H         1.703517         1.927970        -1.113625
 H         1.569291         0.653549        -2.289342
 H         5.399273        -1.797084        -1.077914
 H         4.781485        -1.264172         0.561559
 H         2.881012        -1.295430        -2.047421
