19
Iteration:  4439
 C        -0.040859         0.021724         0.334406
 C         1.340825         0.023589        -0.247214
 C         2.426382         0.465066         0.597444
 C         3.244361         0.384273        -0.774527
 C         1.919665         0.832505        -1.473506
 O         4.697407         0.327914        -0.827126
 C         4.610982        -1.049603        -0.239086
 C         3.174627        -1.151799        -0.883864
 O         1.852866        -1.381762        -0.308287
 H        -0.977851         0.200120        -0.237299
 H        -0.067715        -0.959323         0.871167
 H        -0.152153         0.892262         1.022119
 H         2.498323         1.530467         0.976882
 H         2.514019        -0.299567         1.443068
 H         1.742834         1.921969        -1.823067
 H         1.789985         0.147134        -2.351853
 H         5.434498        -1.671039        -0.715094
 H         4.662248        -1.091940         0.858127
 H         3.209224        -1.688605        -1.903511
