19
Iteration:  3423charge 0 multiplicity 1
 C        -0.058585         0.000036         0.348296
 C         1.432134        -0.092261        -0.181645
 C         2.553850         0.630938         0.604634
 C         3.220444         0.307811        -0.806702
 C         1.871525         0.917889        -1.435905
 O         4.626271         0.312517        -0.765426
 C         4.661681        -1.036073        -0.205317
 C         3.219393        -1.162327        -0.906123
 O         1.785517        -1.492248        -0.435068
 H        -0.725311        -0.760099        -0.192134
 H         0.104859        -0.020470         1.490995
 H        -0.491380         0.917415        -0.021738
 H         2.170842         1.658283         0.474353
 H         2.952289         0.365157         1.589523
 H         1.652774         1.949699        -1.197215
 H         1.381320         0.585134        -2.438546
 H         5.336155        -1.748678        -0.692135
 H         4.493417        -0.980158         0.874195
 H         3.301972        -1.466362        -1.948016
