19
Iteration:  1794
 C        -0.043263         0.010608         0.313333
 C         1.334997         0.028854        -0.166321
 C         2.556784         0.408062         0.731004
 C         3.231304         0.391199        -0.702030
 C         1.897919         0.831927        -1.339120
 O         4.761120         0.287809        -0.805522
 C         4.564588        -1.099450        -0.341314
 C         3.169171        -1.068814        -0.960736
 O         1.753112        -1.341889        -0.493964
 H        -0.377783        -0.917729         0.685799
 H        -0.288284         0.839486         0.897821
 H        -0.612301         0.227962        -0.642999
 H         2.597415         1.389051         1.208196
 H         2.808078        -0.392288         1.412372
 H         1.477780         1.838168        -1.258326
 H         1.759976         0.366581        -2.330201
 H         5.404846        -1.665376        -0.701829
 H         4.538753        -0.975665         0.764752
 H         3.493772        -1.446582        -1.926039
