19
Iteration:  1033
 C        -0.046961         0.079690         0.290435
 C         1.344385        -0.041224        -0.160385
 C         2.488590         0.429226         0.658443
 C         3.243502         0.375502        -0.677882
 C         1.909918         0.969262        -1.278614
 O         4.732363         0.289086        -0.742624
 C         4.653826        -1.153697        -0.376005
 C         3.123015        -1.105188        -0.933380
 O         1.773598        -1.418601        -0.541996
 H        -0.214904        -0.599591         1.106671
 H        -0.204774         1.107482         0.444854
 H        -0.758001        -0.174288        -0.531177
 H         2.318170         1.358852         1.154912
 H         2.819408        -0.168838         1.441629
 H         1.673770         1.928490        -0.884260
 H         1.711448         0.779730        -2.310548
 H         5.255840        -1.747023        -1.069345
 H         4.971424        -1.154752         0.648949
 H         3.304270        -1.478965        -1.982706
