19
Iteration:  1847charge 0 multiplicity 1
 C        -0.046224        -0.022092         0.287266
 C         1.352657        -0.027446        -0.215204
 C         2.503420         0.554251         0.730421
 C         3.249235         0.358736        -0.648565
 C         2.000934         0.921509        -1.403643
 O         4.712377         0.310304        -0.672455
 C         4.626975        -1.183353        -0.472965
 C         3.055741        -1.094332        -0.995918
 O         1.781570        -1.388061        -0.422841
 H        -0.032831        -0.575430         1.179137
 H        -0.402630         0.982091         0.585813
 H        -0.704686        -0.536476        -0.467451
 H         2.270135         1.564683         0.993512
 H         2.783560        -0.000346         1.614245
 H         1.805989         2.020894        -1.233189
 H         1.683286         0.474011        -2.384515
 H         5.356811        -1.734370        -1.061288
 H         4.784863        -1.276139         0.634594
 H         3.207526        -1.337696        -1.972656
