19
Iteration:  2915
 C        -0.143622         0.074310         0.282910
 C         1.312466        -0.059582        -0.258347
 C         2.467281         0.494280         0.624324
 C         3.270870         0.431574        -0.675907
 C         1.870785         0.782694        -1.442555
 O         4.751690         0.299976        -0.785511
 C         4.619019        -1.143116        -0.346292
 C         3.224612        -1.009209        -0.899285
 O         1.849333        -1.394195        -0.332551
 H        -0.361221        -0.952570         0.659174
 H        -0.053352         0.599408         1.269625
 H        -0.894271         0.288489        -0.428068
 H         2.349770         1.484229         1.122649
 H         2.749225        -0.194585         1.413243
 H         1.735307         1.875174        -1.256644
 H         1.726110         0.358460        -2.499887
 H         5.301985        -1.782072        -0.933302
 H         4.761152        -1.248520         0.759884
 H         3.183402        -1.344269        -1.898286
