19
Iteration:  4940charge 0 multiplicity 1
 C        -0.121724         0.035289         0.176619
 C         1.310637        -0.010930        -0.199761
 C         2.512596         0.554513         0.654332
 C         3.228909         0.319294        -0.739221
 C         1.834205         0.850775        -1.405400
 O         4.756044         0.326406        -0.754561
 C         4.649297        -1.097822        -0.267560
 C         3.162830        -1.205578        -0.929728
 O         1.888280        -1.370470        -0.325504
 H        -0.841754        -0.362628        -0.548511
 H        -0.069380        -0.580544         1.048429
 H        -0.408898         1.066659         0.537731
 H         2.590761         1.646866         0.750498
 H         2.819377        -0.054502         1.508447
 H         1.443388         1.887691        -1.417844
 H         1.711673         0.540164        -2.419915
 H         5.396750        -1.781852        -0.733400
 H         4.503321        -1.015715         0.837852
 H         3.197709        -1.564129        -2.010884
