19
Iteration:  1376charge 0 multiplicity 1
 C        -0.116405         0.019285         0.261974
 C         1.371313        -0.049753        -0.222508
 C         2.526256         0.531835         0.640099
 C         3.274950         0.341297        -0.648542
 C         1.920424         0.936959        -1.359418
 O         4.713374         0.286798        -0.716661
 C         4.584407        -1.119670        -0.449749
 C         3.123163        -1.050239        -0.912922
 O         1.842084        -1.453372        -0.372331
 H        -0.474067        -0.820597         0.777461
 H        -0.209715         0.839950         1.089277
 H        -0.629119         0.246993        -0.648748
 H         2.371229         1.599324         0.946223
 H         3.045626        -0.144872         1.364017
 H         1.643540         1.935110        -1.121406
 H         1.691650         0.828266        -2.381158
 H         5.241456        -1.610664        -1.174307
 H         4.710836        -1.556997         0.541376
 H         3.082842        -1.546163        -1.932805
