19
Iteration:  4517
 C        -0.153638        -0.029990         0.126955
 C         1.375433        -0.019934        -0.177257
 C         2.522635         0.598823         0.737224
 C         3.260077         0.428533        -0.613696
 C         1.994532         0.924207        -1.456346
 O         4.669044         0.288146        -0.826724
 C         4.642720        -1.138444        -0.466470
 C         3.069599        -1.130024        -0.851090
 O         1.866097        -1.432917        -0.206803
 H        -0.376063        -1.039845        -0.253683
 H        -0.400817        -0.097383         1.195063
 H        -0.743764         0.732386        -0.264746
 H         2.331870         1.640775         0.919484
 H         2.952103        -0.010511         1.588688
 H         1.519310         1.901001        -1.434152
 H         1.993714         0.526622        -2.481269
 H         5.284064        -1.721795        -1.142722
 H         5.011988        -1.353170         0.496508
 H         2.899655        -1.433334        -1.929091
