19
Iteration:  1419
 C        -0.167460         0.079491         0.142498
 C         1.327744         0.042954        -0.125364
 C         2.556748         0.421884         0.765730
 C         3.193682         0.325807        -0.627039
 C         1.919205         0.909217        -1.265707
 O         4.673814         0.281268        -0.894166
 C         4.668306        -1.093551        -0.451165
 C         3.147999        -1.150486        -0.898432
 O         1.872030        -1.400604        -0.399165
 H        -0.487678        -0.691187         0.816019
 H        -0.338821         0.993013         0.861130
 H        -0.510438        -0.040466        -0.803304
 H         2.569458         1.424102         1.186793
 H         2.668628        -0.266725         1.620667
 H         1.692360         1.933021        -0.975051
 H         1.806120         0.715698        -2.333692
 H         5.301029        -1.805737        -1.029857
 H         4.985684        -1.092200         0.607979
 H         3.391962        -1.262473        -2.006820
