19
Iteration:  1685charge 0 multiplicity 1
 C        -0.077395        -0.014880         0.269757
 C         1.355613        -0.011875        -0.154476
 C         2.530263         0.432193         0.704134
 C         3.289353         0.322256        -0.685826
 C         1.967587         0.999345        -1.294274
 O         4.722028         0.329119        -0.794568
 C         4.546283        -1.134962        -0.387545
 C         3.145132        -1.148088        -0.994298
 O         1.794470        -1.380904        -0.460130
 H        -0.120221        -0.056084         1.332301
 H        -0.529465         0.960005         0.089647
 H        -0.705551        -0.842415        -0.168314
 H         2.267736         1.398836         1.160509
 H         2.706076        -0.393555         1.416330
 H         1.721839         1.971500        -0.999680
 H         1.784877         0.878629        -2.332957
 H         5.423648        -1.515975        -0.795474
 H         4.623248        -1.137496         0.698067
 H         3.053885        -1.340387        -2.080166
