19
Iteration:   175
 C        -0.120490        -0.089217         0.323850
 C         1.371157         0.087671        -0.183901
 C         2.631597         0.648600         0.709773
 C         3.274557         0.388753        -0.662393
 C         1.894198         0.849250        -1.357100
 O         4.753893         0.279649        -0.682123
 C         4.580845        -1.185862        -0.469813
 C         3.097498        -1.154386        -0.961241
 O         1.772533        -1.353160        -0.495795
 H        -0.324779        -1.136557         0.583754
 H        -0.228903         0.509232         1.168365
 H        -0.869991         0.162485        -0.395184
 H         2.484390         1.615114         1.121419
 H         2.861803         0.058965         1.561729
 H         1.727531         1.849469        -1.236796
 H         1.713408         0.570618        -2.388161
 H         5.277201        -1.739126        -1.134379
 H         4.678597        -1.506242         0.556376
 H         3.076598        -1.317430        -2.040945
