19
Iteration:  2281
 C        -0.068294         0.030698         0.253653
 C         1.401797        -0.004373        -0.159069
 C         2.516854         0.464633         0.659523
 C         3.234968         0.364418        -0.667506
 C         1.967683         0.963155        -1.355226
 O         4.679882         0.289955        -0.802357
 C         4.601148        -1.122812        -0.308708
 C         3.113173        -1.127086        -0.914267
 O         1.813411        -1.433468        -0.474002
 H        -0.159891        -0.345477         1.233914
 H        -0.378817         1.108117         0.325101
 H        -0.754494        -0.557110        -0.459044
 H         2.390115         1.524501         0.974015
 H         2.675532        -0.274114         1.479041
 H         1.599798         1.907731        -1.031194
 H         1.902575         0.815327        -2.443914
 H         5.343593        -1.709105        -0.883745
 H         4.558320        -1.226161         0.786849
 H         3.292625        -1.349882        -1.923795
