19
Iteration:  1320charge 0 multiplicity 1
 C        -0.037212        -0.065879         0.307850
 C         1.365436        -0.005092        -0.149987
 C         2.539351         0.502083         0.725603
 C         3.242066         0.383434        -0.665474
 C         1.967739         0.978042        -1.394686
 O         4.685730         0.293044        -0.790503
 C         4.565831        -1.200997        -0.319236
 C         3.093221        -1.049010        -0.926268
 O         1.766898        -1.370615        -0.541804
 H        -0.093611        -0.525440         1.296754
 H        -0.537819         0.996937         0.265230
 H        -0.505494        -0.733107        -0.361911
 H         2.465501         1.522490         1.076775
 H         3.187437         0.021904         1.470072
 H         1.746610         1.944305        -1.063131
 H         1.909455         0.648880        -2.401142
 H         5.141877        -1.810545        -0.992019
 H         4.805793        -1.403862         0.746013
 H         3.363268        -1.504027        -1.918336
