19
Iteration:  4136
 C        -0.076509        -0.059370         0.186338
 C         1.334431         0.000204        -0.138666
 C         2.544153         0.664191         0.588437
 C         3.202956         0.319174        -0.690447
 C         1.986913         0.844382        -1.362896
 O         4.602947         0.364721        -0.829267
 C         4.560077        -1.107715        -0.342361
 C         3.125779        -1.145701        -0.925861
 O         1.885061        -1.470768        -0.253472
 H        -0.418175        -0.930774        -0.553608
 H        -0.043409        -0.320834         1.318381
 H        -0.513179         0.961387        -0.099153
 H         2.614127         1.832481         0.703644
 H         2.969616         0.412332         1.633590
 H         1.841571         1.968437        -1.145743
 H         1.878904         0.527705        -2.427982
 H         5.393419        -1.642866        -0.941233
 H         4.531270        -1.342459         0.712474
 H         3.365929        -1.529166        -1.906525
