19
Iteration:  2306charge 0 multiplicity 1
 C        -0.081394         0.097413         0.317715
 C         1.396639        -0.005936        -0.155650
 C         2.579591         0.475254         0.720845
 C         3.243248         0.299536        -0.679454
 C         2.015623         0.818036        -1.394400
 O         4.655938         0.373262        -0.684556
 C         4.620159        -1.085973        -0.333415
 C         3.124656        -1.137382        -1.042503
 O         1.736151        -1.432997        -0.547113
 H        -0.062452         0.085504         1.484777
 H        -0.545588         0.983320         0.005934
 H        -0.654272        -0.739507        -0.059801
 H         2.380783         1.605788         0.760268
 H         2.839429        -0.022844         1.737735
 H         1.688665         1.813640        -1.082814
 H         1.750748         0.634683        -2.435296
 H         5.282458        -1.874479        -0.847199
 H         4.472545        -1.096596         0.734243
 H         3.360186        -1.542352        -2.053172
