19
Iteration:   202
 C        -0.050338        -0.012605         0.417229
 C         1.378838         0.008328        -0.125330
 C         2.509151         0.427223         0.705571
 C         3.219973         0.380008        -0.739092
 C         2.026559         0.962987        -1.423920
 O         4.669374         0.317145        -0.768164
 C         4.585824        -1.114277        -0.338385
 C         3.128231        -1.158452        -1.013337
 O         1.793743        -1.392966        -0.511840
 H        -0.436759        -0.949354         0.799411
 H        -0.148238         0.886982         1.132161
 H        -0.738227         0.177853        -0.469243
 H         2.362125         1.494804         1.075626
 H         2.706851        -0.274795         1.606960
 H         1.873328         2.087570        -1.060620
 H         1.943587         0.726879        -2.508326
 H         5.327318        -1.720479        -0.840924
 H         4.525829        -1.279827         0.776341
 H         3.164228        -1.431598        -2.090489
