19
Iteration:   463
 C        -0.108989         0.042726         0.214203
 C         1.370851        -0.030294        -0.023654
 C         2.499307         0.433076         0.799992
 C         3.241328         0.396110        -0.616572
 C         2.114850         0.961387        -1.328603
 O         4.674059         0.298227        -0.828352
 C         4.576829        -1.170422        -0.509664
 C         3.100645        -1.063983        -0.994891
 O         1.804246        -1.437896        -0.425571
 H        -0.453703        -0.221682         1.212230
 H        -0.517222         1.029814        -0.176749
 H        -0.566584        -0.656490        -0.558856
 H         2.171707         1.491008         1.086018
 H         2.921242        -0.156626         1.670582
 H         1.835788         2.026305        -1.094877
 H         1.879774         0.493542        -2.259279
 H         5.240471        -1.816174        -1.086680
 H         4.748880        -1.265957         0.604589
 H         3.119335        -1.090537        -2.082108
