19
Iteration:  2484
 C        -0.064062        -0.068771         0.302866
 C         1.352435         0.066926        -0.153858
 C         2.557096         0.697226         0.627816
 C         3.219812         0.357292        -0.721474
 C         1.958230         0.864673        -1.409815
 O         4.654929         0.274084        -0.725090
 C         4.540034        -1.182348        -0.318696
 C         3.165880        -1.134830        -0.980310
 O         1.857159        -1.420454        -0.424360
 H        -0.198080        -0.798467         1.083717
 H        -0.593963         0.893110         0.592629
 H        -0.591808        -0.462029        -0.536106
 H         2.569417         1.763126         0.913021
 H         2.771909         0.083973         1.497517
 H         1.630072         1.864557        -1.119313
 H         1.832234         0.722967        -2.505345
 H         5.252770        -1.844555        -0.737777
 H         4.691106        -1.195110         0.809102
 H         3.259035        -1.464156        -2.025814
