19
Iteration:  2774
 C        -0.098357        -0.041441         0.340916
 C         1.330523         0.082108        -0.224888
 C         2.494983         0.498255         0.650667
 C         3.262698         0.406093        -0.683111
 C         1.901655         0.785415        -1.453244
 O         4.690040         0.277192        -0.687441
 C         4.548756        -1.127158        -0.319672
 C         3.181016        -1.050077        -1.027194
 O         1.883975        -1.369011        -0.427812
 H         0.012079         0.180137         1.433268
 H        -0.814392         0.772617         0.031469
 H        -0.461483        -1.021670         0.248626
 H         2.467064         1.426817         1.178022
 H         3.002857        -0.090129         1.346828
 H         1.877744         1.889449        -1.325376
 H         1.731201         0.343016        -2.455712
 H         5.331336        -1.661494        -0.928293
 H         4.500616        -1.358275         0.773158
 H         3.281437        -1.223256        -2.121832
