19
Iteration:  1276
 C        -0.159239         0.111891         0.196344
 C         1.438978        -0.063263        -0.121109
 C         2.599907         0.426809         0.758490
 C         3.224104         0.335918        -0.632936
 C         1.962551         0.965988        -1.343863
 O         4.659415         0.374213        -0.776927
 C         4.566938        -1.168623        -0.453839
 C         3.145730        -1.123369        -0.941567
 O         1.830258        -1.466038        -0.439131
 H        -0.432906         0.196406         1.287041
 H        -0.441213         1.167732        -0.222714
 H        -0.671896        -0.683705        -0.254712
 H         2.474280         1.403535         1.191599
 H         2.723387        -0.339294         1.539898
 H         1.677298         1.953823        -1.054154
 H         1.879677         0.576974        -2.359616
 H         5.329833        -1.656512        -1.025124
 H         4.804888        -1.257667         0.610676
 H         3.044762        -1.295547        -2.054240
