19
Iteration:   157charge 0 multiplicity 1
 C        -0.034456        -0.028582         0.241149
 C         1.414196        -0.068285        -0.072532
 C         2.434034         0.572402         0.692481
 C         3.197644         0.437373        -0.687535
 C         1.899144         0.992919        -1.377990
 O         4.766766         0.200885        -0.718485
 C         4.581188        -1.257972        -0.495143
 C         3.116656        -1.020009        -0.992578
 O         1.859015        -1.358645        -0.334688
 H        -0.302798        -1.114646         0.413321
 H        -0.321669         0.628515         1.072955
 H        -0.615759         0.146920        -0.665059
 H         2.355524         1.677685         0.752819
 H         2.873665         0.020728         1.563122
 H         1.558860         2.066214        -1.178016
 H         1.649301         0.506049        -2.343350
 H         5.209452        -1.833990        -1.192691
 H         4.797432        -1.448944         0.560828
 H         3.056085        -1.234149        -2.079676
