19
Iteration:   406charge 0 multiplicity 1
 C        -0.106269        -0.000029         0.243236
 C         1.350458         0.005255        -0.134864
 C         2.626354         0.530803         0.743737
 C         3.258667         0.375057        -0.732971
 C         1.941461         0.887713        -1.329618
 O         4.772773         0.330471        -0.637231
 C         4.530679        -1.192640        -0.506076
 C         3.117687        -1.116926        -0.988330
 O         1.786646        -1.389696        -0.452417
 H        -0.404401        -1.033277         0.700260
 H        -0.206813         0.817329         1.055673
 H        -0.777714         0.019695        -0.635315
 H         2.462373         1.652813         0.927292
 H         2.825326         0.055780         1.763261
 H         1.374754         1.924900        -1.168903
 H         1.821607         0.646983        -2.425458
 H         5.202141        -1.817809        -1.121261
 H         4.620770        -1.424334         0.601506
 H         3.077123        -1.340037        -2.062026
