19
Iteration:   998
 C        -0.051288         0.101432         0.330873
 C         1.350679         0.053226        -0.080215
 C         2.502222         0.421857         0.711916
 C         3.272306         0.382231        -0.674743
 C         2.007500         0.823690        -1.293546
 O         4.717938         0.334309        -0.732636
 C         4.513758        -1.063266        -0.409930
 C         3.126431        -1.135083        -1.065018
 O         1.819050        -1.456207        -0.531132
 H        -0.426170        -0.813936         0.752850
 H        -0.272375         0.759205         1.134337
 H        -0.581195         0.273331        -0.706662
 H         2.320931         1.436027         0.961887
 H         2.736087        -0.355380         1.420923
 H         1.744527         1.977966        -1.314306
 H         1.713589         0.521940        -2.319589
 H         5.244609        -1.809965        -0.749291
 H         4.648311        -1.138721         0.695502
 H         3.192277        -1.483897        -2.148607
