19
Iteration:  1284charge 0 multiplicity 1
 C        -0.146447         0.143961         0.212212
 C         1.314579        -0.060726        -0.108528
 C         2.557320         0.392749         0.753958
 C         3.221559         0.358586        -0.677651
 C         2.029230         0.918651        -1.283443
 O         4.713790         0.377936        -0.802364
 C         4.593793        -1.125010        -0.390041
 C         3.109707        -1.142501        -1.012754
 O         1.865673        -1.455585        -0.428579
 H        -0.322546         0.110326         1.313531
 H        -0.613293         0.986723        -0.140231
 H        -0.610933        -0.701414        -0.243298
 H         2.473686         1.407796         1.021853
 H         2.795001        -0.313452         1.525133
 H         1.734124         2.005411        -1.202310
 H         1.735194         0.856787        -2.359801
 H         5.254982        -1.738875        -1.022272
 H         4.625015        -1.390369         0.689141
 H         3.074025        -1.386468        -2.070899
