19
Iteration:  1505
 C        -0.059526        -0.021895         0.361859
 C         1.330108        -0.021705        -0.185441
 C         2.493372         0.565925         0.664102
 C         3.217229         0.349926        -0.705442
 C         1.966638         0.966482        -1.332132
 O         4.729288         0.262097        -0.655268
 C         4.619435        -1.159400        -0.423912
 C         3.165076        -1.082716        -1.008544
 O         1.777872        -1.437421        -0.519943
 H         0.175662        -0.224317         1.427684
 H        -0.391914         1.092372         0.195862
 H        -0.854627        -0.665404         0.020332
 H         2.182702         1.553125         0.969241
 H         2.851575        -0.005456         1.511634
 H         1.637511         1.987578        -0.975542
 H         1.689089         0.872043        -2.457565
 H         5.279969        -1.708078        -1.157628
 H         4.860946        -1.474611         0.618028
 H         3.235347        -1.361950        -2.057042
