19
Iteration:  3762
 C        -0.094045         0.009746         0.435741
 C         1.293980        -0.043589        -0.261398
 C         2.529318         0.631883         0.487456
 C         3.228347         0.405468        -0.805724
 C         1.868212         0.830119        -1.528132
 O         4.838588         0.284773        -0.776792
 C         4.543439        -1.098997        -0.190934
 C         3.109580        -1.068691        -0.910317
 O         1.875826        -1.460200        -0.338969
 H        -0.893105        -0.232273        -0.219147
 H        -0.063261        -0.967195         1.033620
 H        -0.245097         0.736063         1.308755
 H         2.328402         1.704154         0.676220
 H         2.699304        -0.013931         1.394628
 H         1.710660         1.940462        -1.336218
 H         1.691095         0.379693        -2.489184
 H         5.274413        -1.820951        -0.521565
 H         4.594814        -1.088846         0.989652
 H         3.299973        -1.396275        -1.971929
