19
Iteration:  3054charge 0 multiplicity 1
 C        -0.171725         0.028565         0.108240
 C         1.312652        -0.063231        -0.165897
 C         2.485516         0.468782         0.740722
 C         3.244886         0.382356        -0.636478
 C         1.923910         0.849164        -1.322737
 O         4.861381         0.381952        -0.842697
 C         4.637743        -1.089653        -0.462724
 C         3.128244        -1.095943        -0.895868
 O         1.805189        -1.411281        -0.287666
 H        -0.195586         0.078230         1.257889
 H        -0.732248         0.899657        -0.162534
 H        -0.638801        -0.916539        -0.180905
 H         2.414945         1.573381         0.866388
 H         2.806749        -0.214428         1.571002
 H         1.635197         1.908523        -1.248816
 H         1.764703         0.351790        -2.260618
 H         5.275549        -1.840039        -1.016039
 H         4.788009        -1.225671         0.593844
 H         3.056296        -1.477893        -1.974728
