19
Iteration:   548
 C         0.007626        -0.109957         0.339032
 C         1.368831         0.033832        -0.191900
 C         2.441111         0.610145         0.728882
 C         3.275921         0.371453        -0.617125
 C         1.892246         0.970632        -1.383815
 O         4.800921         0.243818        -0.750562
 C         4.562964        -1.221207        -0.435492
 C         3.105471        -1.082774        -0.977875
 O         1.800141        -1.367229        -0.468889
 H        -0.367584        -0.908291         0.952908
 H        -0.100445         0.911163         0.807948
 H        -0.629976        -0.121791        -0.475373
 H         2.300981         1.658857         0.952994
 H         2.648037        -0.061204         1.557535
 H         1.464990         2.023633        -1.201520
 H         1.787567         0.671648        -2.433003
 H         5.144628        -1.798404        -1.099260
 H         4.677807        -1.397528         0.651754
 H         3.181103        -1.444949        -2.003711
