19
Iteration:  2536charge 0 multiplicity 1
 C        -0.213196         0.072357         0.124227
 C         1.258643         0.105499        -0.154803
 C         2.507762         0.468239         0.696650
 C         3.254181         0.354794        -0.651093
 C         1.890662         0.906614        -1.344109
 O         4.699170         0.324597        -0.818943
 C         4.742033        -1.165268        -0.428803
 C         3.180451        -1.145728        -0.894392
 O         1.912833        -1.491643        -0.306343
 H        -0.438917         0.199264         1.223678
 H        -0.694661         0.964474        -0.277021
 H        -0.754959        -0.777417        -0.186551
 H         2.446501         1.592998         0.957454
 H         2.866142        -0.010756         1.633372
 H         1.925812         1.986337        -1.260424
 H         1.430152         0.581323        -2.242197
 H         5.416528        -1.760995        -1.052899
 H         4.975184        -1.245666         0.630150
 H         3.162465        -1.594338        -1.851203
