19
Iteration:  1480charge 0 multiplicity 1
 C        -0.098143        -0.056308         0.372999
 C         1.328769         0.088140        -0.153205
 C         2.544419         0.539128         0.667903
 C         3.273018         0.346741        -0.619256
 C         1.891391         0.898405        -1.396701
 O         4.792241         0.290355        -0.651185
 C         4.583670        -1.223413        -0.482765
 C         3.167157        -1.059108        -1.022480
 O         1.785235        -1.330231        -0.488367
 H         0.015935        -0.315712         1.460931
 H        -0.643751         0.757062         0.153438
 H        -0.673477        -0.921734        -0.095876
 H         2.176626         1.478615         1.044296
 H         2.743484        -0.229921         1.424824
 H         1.560534         1.944644        -1.375786
 H         1.812802         0.495533        -2.432024
 H         5.178103        -1.864903        -1.110883
 H         4.696263        -1.461730         0.583986
 H         3.184708        -1.215468        -2.076320
