19
Iteration:  1757charge 0 multiplicity 1
 C        -0.121937         0.012396         0.200264
 C         1.360218        -0.001938        -0.176299
 C         2.478392         0.569353         0.720258
 C         3.222979         0.334514        -0.639420
 C         2.027083         0.978216        -1.290107
 O         4.639091         0.312063        -0.739092
 C         4.632411        -1.156365        -0.538518
 C         3.163261        -1.135279        -0.984039
 O         1.877589        -1.474646        -0.334649
 H        -0.401299        -0.777651         0.966910
 H        -0.549006         1.031479         0.620034
 H        -0.563619        -0.248062        -0.741159
 H         2.541572         1.610625         1.015371
 H         2.673366        -0.137831         1.528791
 H         1.792939         2.086757        -0.996729
 H         1.779375         0.895886        -2.417809
 H         5.281994        -1.868264        -1.143035
 H         4.746315        -1.362016         0.560264
 H         2.855145        -1.418857        -1.974651
