19
Iteration:  4684
 C        -0.130308         0.002584         0.093832
 C         1.326224        -0.030690        -0.091853
 C         2.509067         0.572328         0.694682
 C         3.223915         0.333659        -0.715448
 C         1.949518         0.856957        -1.385694
 O         4.699293         0.341402        -0.837768
 C         4.720867        -1.112253        -0.400839
 C         3.141344        -1.152227        -0.822687
 O         1.808998        -1.438004        -0.268863
 H        -0.629151         0.034513        -0.841899
 H        -0.558081        -0.750981         0.712708
 H        -0.263490         0.935066         0.681873
 H         2.328259         1.711347         0.786171
 H         2.903721         0.106271         1.619851
 H         1.657921         1.907383        -1.398611
 H         1.635311         0.432785        -2.326976
 H         5.495819        -1.622309        -1.003416
 H         4.917101        -1.026602         0.688200
 H         3.062075        -1.407232        -1.929407
