19
Iteration:   396
 C        -0.036440         0.020697         0.256644
 C         1.401168        -0.050712        -0.201785
 C         2.544799         0.509191         0.676228
 C         3.246716         0.402087        -0.621815
 C         1.945079         0.843360        -1.315779
 O         4.728241         0.283366        -0.696065
 C         4.551697        -1.154698        -0.425301
 C         3.099119        -1.033508        -1.018525
 O         1.752196        -1.406345        -0.457386
 H        -0.183701        -0.981500         0.764760
 H        -0.302745         0.784976         1.097498
 H        -0.747721         0.364223        -0.510528
 H         2.469798         1.634141         0.947256
 H         3.122680        -0.105061         1.460827
 H         1.726440         2.002194        -1.076774
 H         1.627892         0.517663        -2.325232
 H         5.295308        -1.757979        -0.954348
 H         4.689372        -1.350525         0.691629
 H         3.157133        -1.156366        -2.097349
