19
Iteration:  4555charge 0 multiplicity 1
 C        -0.043880         0.051505         0.295402
 C         1.337490        -0.025805        -0.191291
 C         2.511877         0.561671         0.671638
 C         3.225839         0.359981        -0.708021
 C         1.867294         0.816685        -1.475057
 O         4.733323         0.305117        -0.733297
 C         4.658494        -1.111953        -0.361239
 C         3.130122        -1.128537        -0.907915
 O         1.813746        -1.380092        -0.417461
 H        -0.507394        -0.886076        -0.058030
 H         0.003548        -0.122250         1.390180
 H        -0.792111         0.882054         0.027656
 H         2.457319         1.651403         0.973728
 H         2.767944         0.006195         1.564321
 H         1.418604         1.827392        -1.337502
 H         1.637761         0.354402        -2.434935
 H         5.585156        -1.626504        -0.793954
 H         4.746992        -1.159401         0.850968
 H         3.252357        -1.584087        -1.915831
