19
Iteration:  1830
 C        -0.029290        -0.020676         0.344059
 C         1.378788         0.002624        -0.161179
 C         2.467086         0.544205         0.615266
 C         3.222665         0.370951        -0.706700
 C         1.990938         0.932475        -1.348823
 O         4.682037         0.306745        -0.717611
 C         4.544142        -1.106806        -0.360744
 C         3.194231        -1.188141        -0.977859
 O         1.782281        -1.443006        -0.483799
 H        -0.223932        -0.832258         1.171044
 H        -0.161566         0.957035         0.802466
 H        -0.735903        -0.079258        -0.475137
 H         2.494609         1.672774         0.756711
 H         2.780825         0.051841         1.574524
 H         1.697069         1.866147        -0.947933
 H         2.076723         1.044760        -2.409562
 H         5.371398        -1.676274        -0.860191
 H         4.588951        -1.470598         0.655897
 H         3.026431        -1.350284        -2.156492
