19
Iteration:   163
 C        -0.013375        -0.075125         0.263922
 C         1.374151        -0.013290        -0.081210
 C         2.479708         0.617735         0.748586
 C         3.211878         0.396057        -0.704544
 C         1.880248         0.946592        -1.407711
 O         4.769073         0.174373        -0.692264
 C         4.606218        -1.202701        -0.495560
 C         3.120047        -1.015841        -0.997147
 O         1.807215        -1.346229        -0.385490
 H        -0.263944        -1.087695         0.523336
 H        -0.316812         0.574319         1.080205
 H        -0.552881         0.288743        -0.636882
 H         2.380425         1.683397         0.836257
 H         2.871836         0.009129         1.531735
 H         1.484580         1.890926        -1.168439
 H         1.680502         0.615150        -2.428160
 H         5.240922        -1.790156        -1.187076
 H         4.789577        -1.486554         0.556306
 H         3.130102        -1.363944        -2.033100
