19
Iteration:  3144charge 0 multiplicity 1
 C         0.045244        -0.052775         0.244735
 C         1.413481        -0.045105        -0.157382
 C         2.445489         0.729320         0.611994
 C         3.267420         0.361203        -0.637263
 C         1.921757         0.784508        -1.396124
 O         4.665359         0.329093        -0.765085
 C         4.611066        -1.131180        -0.368269
 C         3.099330        -1.105482        -0.880678
 O         1.833340        -1.446493        -0.392975
 H        -0.316587        -1.054382         0.377063
 H        -0.213355         0.517083         1.232363
 H        -0.632940         0.262782        -0.551812
 H         2.188057         1.854656         0.612768
 H         2.698760         0.188355         1.524744
 H         1.649601         1.837614        -1.349918
 H         1.552445         0.556945        -2.463138
 H         5.318937        -1.715390        -0.884826
 H         4.658209        -1.265915         0.746590
 H         3.045976        -1.367077        -1.975443
