19
Iteration:   800charge 0 multiplicity 1
 C        -0.090391        -0.029262         0.202046
 C         1.370604         0.006750        -0.163144
 C         2.548327         0.466453         0.700733
 C         3.277238         0.360116        -0.584635
 C         1.961477         0.874240        -1.335948
 O         4.741814         0.324895        -0.756154
 C         4.586202        -1.119537        -0.495690
 C         3.113248        -1.093270        -0.954603
 O         1.764671        -1.342622        -0.350523
 H        -0.310007        -1.036642         0.670512
 H        -0.510404         0.830040         0.852352
 H        -0.729712        -0.096836        -0.751994
 H         2.506475         1.457662         1.045720
 H         2.819118        -0.055942         1.570075
 H         1.815866         1.940087        -1.195132
 H         1.848150         0.556674        -2.428992
 H         5.103783        -1.637048        -1.268678
 H         4.663991        -1.518961         0.594329
 H         3.060136        -1.312803        -2.060412
