19
Iteration:  4564charge 0 multiplicity 1
 C        -0.038826         0.015145         0.317618
 C         1.373321         0.008962        -0.213778
 C         2.549479         0.533806         0.671531
 C         3.195331         0.414912        -0.763435
 C         1.829353         0.802420        -1.522129
 O         4.720995         0.319376        -0.743284
 C         4.611496        -1.105822        -0.299341
 C         3.209587        -1.068643        -0.869763
 O         1.799945        -1.446831        -0.401264
 H        -0.681355        -0.765385        -0.039040
 H        -0.027628        -0.037920         1.383354
 H        -0.477898         1.049706         0.175007
 H         2.471237         1.538703         1.184161
 H         2.860547        -0.307414         1.252611
 H         1.504534         1.816450        -1.404346
 H         1.690541         0.493428        -2.525169
 H         5.281566        -1.873738        -0.671861
 H         4.569638        -1.285046         0.821568
 H         3.287244        -1.372947        -1.974737
