19
Iteration:  1498
 C        -0.082683        -0.030532         0.410926
 C         1.314013        -0.056763        -0.220582
 C         2.454269         0.540883         0.706029
 C         3.268163         0.423147        -0.726168
 C         1.938878         0.945433        -1.352463
 O         4.816865         0.238407        -0.637995
 C         4.630623        -1.159007        -0.449520
 C         3.093413        -1.052921        -0.966597
 O         1.751921        -1.418262        -0.524406
 H         0.152324        -0.230735         1.442023
 H        -0.472764         1.102755         0.116554
 H        -0.657031        -0.809989        -0.086407
 H         2.449939         1.700141         0.627474
 H         2.822460        -0.102073         1.551176
 H         1.685847         1.970875        -1.124611
 H         1.642683         0.803748        -2.347862
 H         5.385841        -1.551193        -1.160895
 H         4.845185        -1.504636         0.563846
 H         3.211732        -1.404018        -2.060621
