19
Iteration:  3135charge 0 multiplicity 1
 C        -0.092118        -0.077297         0.323377
 C         1.379756         0.027508        -0.219116
 C         2.533476         0.633048         0.615096
 C         3.259687         0.384130        -0.674772
 C         1.864478         0.794915        -1.476702
 O         4.655645         0.302451        -0.746948
 C         4.568169        -1.153132        -0.334995
 C         3.181360        -1.086752        -0.853011
 O         1.889747        -1.406036        -0.424360
 H        -0.235677        -1.110706         0.589203
 H        -0.163343         0.649579         1.209042
 H        -0.833412         0.287777        -0.444011
 H         2.251560         1.684958         0.819847
 H         2.722880         0.318102         1.636017
 H         1.791773         1.901262        -1.336049
 H         1.617426         0.332722        -2.503209
 H         5.290676        -1.685887        -0.904117
 H         4.724146        -1.274894         0.766134
 H         3.340545        -1.292207        -1.911652
