19
Iteration:  2683charge 0 multiplicity 1
 C        -0.094637         0.138489         0.140537
 C         1.332493        -0.103811        -0.147920
 C         2.526393         0.563940         0.690063
 C         3.144180         0.350156        -0.584493
 C         1.927385         0.808067        -1.364789
 O         4.637114         0.347266        -0.829028
 C         4.688320        -1.093767        -0.395908
 C         3.230135        -1.152367        -0.878960
 O         1.836664        -1.502144        -0.354006
 H        -0.558676        -0.687742         0.719105
 H        -0.268794         0.991750         0.767061
 H        -0.782857         0.345014        -0.763933
 H         2.457379         1.647821         0.626838
 H         2.887640         0.289432         1.704698
 H         1.563090         1.873673        -1.118750
 H         1.864325         0.486772        -2.432144
 H         5.473710        -1.457845        -1.129513
 H         4.952527        -1.205443         0.676143
 H         3.346403        -1.518936        -1.879420
