19
Iteration:   274
 C        -0.052341        -0.016117         0.194671
 C         1.337334         0.033882        -0.153396
 C         2.484238         0.510338         0.692823
 C         3.318689         0.358405        -0.591759
 C         2.004036         0.972363        -1.314500
 O         4.684903         0.320132        -0.676168
 C         4.590311        -1.252484        -0.615476
 C         3.081956        -1.081573        -0.923011
 O         1.805496        -1.371451        -0.356260
 H        -0.247728        -0.323789         1.284819
 H        -0.607916         0.779327        -0.198536
 H        -0.369874        -0.892915        -0.366357
 H         2.403645         1.546729         0.958581
 H         2.750335        -0.209807         1.493227
 H         1.768531         1.862515        -0.876620
 H         1.808455         0.750556        -2.339080
 H         5.098155        -1.752084        -1.503510
 H         4.961731        -1.550489         0.334633
 H         2.986956        -1.257485        -1.991745
