19
Iteration:  1869
 C        -0.182183         0.040458         0.190948
 C         1.313195         0.049833        -0.087033
 C         2.563362         0.537015         0.745737
 C         3.260689         0.336790        -0.614323
 C         1.924508         0.851558        -1.387434
 O         4.740016         0.294625        -0.735343
 C         4.598247        -1.192660        -0.503412
 C         3.112274        -1.026507        -0.932117
 O         1.906318        -1.393230        -0.406373
 H        -0.306707        -0.310920         1.175031
 H        -0.847058         0.921091         0.104542
 H        -0.489679        -0.848836        -0.456490
 H         2.615497         1.458833         1.263034
 H         2.613902        -0.296222         1.399090
 H         1.645342         1.946444        -1.270802
 H         1.833270         0.462856        -2.447600
 H         5.126291        -1.710801        -1.293888
 H         4.731470        -1.570663         0.536659
 H         3.229719        -1.202702        -1.945253
