19
Iteration:  2879charge 0 multiplicity 1
 C        -0.085402        -0.063880         0.108444
 C         1.369410        -0.021105        -0.117359
 C         2.579483         0.708796         0.659844
 C         3.224034         0.345817        -0.682595
 C         2.007287         0.850377        -1.310654
 O         4.579617         0.325784        -0.739830
 C         4.606745        -1.183588        -0.463155
 C         3.125998        -1.115165        -0.895950
 O         1.842445        -1.429589        -0.290219
 H        -0.167032        -1.125709         0.541970
 H        -0.616949         0.647544         0.666360
 H        -0.750183         0.123047        -0.781081
 H         2.412076         1.793141         0.682564
 H         2.920507         0.201087         1.664480
 H         2.006087         1.966440        -1.175641
 H         1.595442         0.639951        -2.250161
 H         5.287000        -1.710491        -1.183958
 H         5.021061        -1.349172         0.484673
 H         3.174370        -1.357720        -2.001469
