19
Iteration:    17charge 0 multiplicity 1
 C        -0.181735        -0.106347         0.326009
 C         1.312342         0.156018        -0.130449
 C         2.514800         0.585056         0.735559
 C         3.235153         0.307680        -0.718072
 C         1.863506         0.903264        -1.313334
 O         4.817358         0.287513        -0.683162
 C         4.612551        -1.190344        -0.456485
 C         3.173935        -1.180621        -1.003052
 O         1.841278        -1.304765        -0.518722
 H        -0.129664        -0.483181         1.376643
 H        -0.604951         0.916337         0.322872
 H        -0.703516        -0.975093        -0.119131
 H         2.615981         1.685676         0.775646
 H         2.790921         0.194353         1.736646
 H         1.822397         2.004315        -1.464029
 H         1.492985         0.453792        -2.292642
 H         5.243957        -1.738196        -1.197834
 H         4.883217        -1.455054         0.586169
 H         3.254922        -1.594067        -2.036319
