19
Iteration:  2402charge 0 multiplicity 1
 C        -0.160911         0.072662         0.093756
 C         1.329671        -0.041755        -0.137203
 C         2.526026         0.474442         0.735977
 C         3.268884         0.326740        -0.734750
 C         1.914525         0.868782        -1.352683
 O         4.802836         0.292764        -0.825381
 C         4.643186        -1.095485        -0.423118
 C         3.133471        -1.126729        -0.899635
 O         1.791690        -1.375224        -0.250694
 H        -0.099957        -0.889752         0.705736
 H        -0.307388         0.896052         0.780402
 H        -0.847952         0.080821        -0.841330
 H         2.146705         1.483010         1.047303
 H         2.768899        -0.202309         1.627520
 H         1.714804         1.896699        -1.073893
 H         1.493088         0.685434        -2.360117
 H         5.467547        -1.692373        -0.985515
 H         4.690507        -1.077416         0.637690
 H         3.176481        -1.183310        -1.966056
