19
Iteration:   702
 C        -0.092490        -0.101478         0.341793
 C         1.324742         0.073456        -0.197029
 C         2.496719         0.586214         0.738578
 C         3.199278         0.337397        -0.635840
 C         1.950576         0.965131        -1.304381
 O         4.727242         0.223027        -0.749589
 C         4.623256        -1.228721        -0.415073
 C         3.176219        -1.094649        -1.068666
 O         1.828703        -1.331487        -0.499752
 H         0.034325        -0.417571         1.412291
 H        -0.718619         0.870785         0.335160
 H        -0.756616        -0.778724        -0.221280
 H         2.355017         1.660286         0.887620
 H         2.733823         0.254616         1.721796
 H         1.682981         1.994897        -1.217038
 H         1.708380         0.513239        -2.333964
 H         5.465439        -1.670183        -0.904978
 H         4.726107        -1.514350         0.701106
 H         3.304924        -1.202832        -2.168255
