19
Iteration:  1973
 C         0.002850        -0.012591         0.368909
 C         1.377287         0.029043        -0.225006
 C         2.520985         0.600834         0.634221
 C         3.247679         0.312869        -0.685612
 C         1.963366         0.910699        -1.419236
 O         4.613990         0.289529        -0.647214
 C         4.494993        -1.154327        -0.359638
 C         3.093865        -1.076170        -1.039822
 O         1.893462        -1.472062        -0.453630
 H        -0.149324        -0.991747         0.878877
 H        -0.170037         0.884700         1.013753
 H        -0.688423         0.039731        -0.415849
 H         2.498042         1.721726         0.761288
 H         2.978383         0.152068         1.599106
 H         1.671092         1.912414        -1.058244
 H         1.874395         0.790896        -2.467201
 H         5.185651        -1.897888        -0.839743
 H         4.521089        -1.347862         0.730455
 H         3.313835        -1.248026        -2.135909
