19
Iteration:  4005charge 0 multiplicity 1
 C        -0.060650        -0.040477         0.078351
 C         1.368797        -0.030052        -0.107809
 C         2.511750         0.772329         0.744914
 C         3.172768         0.300926        -0.644892
 C         1.975492         0.786125        -1.294952
 O         4.635067         0.314023        -0.927270
 C         4.671607        -1.104369        -0.462081
 C         3.146135        -1.170613        -0.762056
 O         1.849692        -1.431548        -0.277021
 H        -0.505679         0.105469        -0.952844
 H        -0.481876        -0.967747         0.382600
 H        -0.509840         0.658702         0.769751
 H         2.189450         1.834859         0.705529
 H         2.739286         0.414860         1.721424
 H         1.591210         1.779972        -1.427205
 H         1.738749         0.443418        -2.364247
 H         5.400963        -1.693203        -1.090475
 H         4.978080        -1.177746         0.550804
 H         3.243194        -1.264716        -1.895361
