19
Iteration:  4335charge 0 multiplicity 1
 C        -0.069805         0.006074         0.100335
 C         1.436892         0.001218        -0.171329
 C         2.465468         0.728268         0.766808
 C         3.180457         0.366851        -0.646984
 C         1.948940         0.828983        -1.307979
 O         4.580630         0.310337        -0.864700
 C         4.744922        -1.126452        -0.464802
 C         3.127423        -1.218298        -0.874919
 O         1.847533        -1.482321        -0.265044
 H        -0.597549        -0.827026        -0.352172
 H        -0.386778         0.159286         1.164858
 H        -0.345259         0.968634        -0.351323
 H         2.345626         1.756409         0.724984
 H         2.904962         0.289828         1.637808
 H         1.442081         1.758554        -1.203758
 H         1.707061         0.353634        -2.287128
 H         5.480981        -1.672810        -1.051251
 H         5.000593        -1.192659         0.608069
 H         3.153489        -1.462719        -1.881903
