19
Iteration:  1377
 C        -0.110859         0.020193         0.263292
 C         1.370392        -0.053644        -0.221357
 C         2.531567         0.526650         0.646024
 C         3.272568         0.348036        -0.639917
 C         1.923831         0.928202        -1.361989
 O         4.715835         0.292154        -0.719634
 C         4.583172        -1.115999        -0.450745
 C         3.123236        -1.059469        -0.913461
 O         1.831772        -1.454228        -0.372255
 H        -0.492373        -0.843663         0.768342
 H        -0.223173         0.860864         1.075121
 H        -0.661111         0.282578        -0.691893
 H         2.384845         1.630744         0.932531
 H         3.076193        -0.152314         1.372127
 H         1.632703         1.937971        -1.122473
 H         1.722584         0.841433        -2.390260
 H         5.254435        -1.598712        -1.179094
 H         4.733690        -1.533091         0.542035
 H         3.054338        -1.539256        -1.954390
