19
Iteration:  3830charge 0 multiplicity 1
 C        -0.132360         0.041599         0.121348
 C         1.306644        -0.002280        -0.145710
 C         2.423179         0.480977         0.723036
 C         3.224038         0.343188        -0.765693
 C         1.955189         0.845494        -1.451411
 O         4.686396         0.323697        -0.894972
 C         4.739342        -1.082648        -0.421232
 C         3.130184        -1.112996        -0.819031
 O         1.916662        -1.396406        -0.105460
 H        -0.790546        -0.606683        -0.443650
 H        -0.530984        -0.160169         1.086414
 H        -0.631817         0.974065        -0.206326
 H         2.381877         1.517312         1.050206
 H         2.718180        -0.155360         1.537476
 H         1.794729         1.877374        -1.176439
 H         1.835089         0.476578        -2.508207
 H         5.304735        -1.651874        -1.189390
 H         5.035249        -1.434315         0.633354
 H         3.053696        -1.408059        -1.923418
