19
Iteration:  3186
 C        -0.177186         0.015757         0.072189
 C         1.316566         0.124156        -0.159203
 C         2.508225         0.512447         0.662175
 C         3.170180         0.364662        -0.714661
 C         1.924442         0.745941        -1.319554
 O         4.649398         0.367633        -0.868345
 C         4.700236        -1.139752        -0.387992
 C         3.196252        -1.111484        -0.826573
 O         1.917537        -1.433108        -0.181565
 H        -0.470253        -0.918299        -0.386765
 H        -0.439112         0.409489         1.145473
 H        -0.737440         0.668366        -0.573098
 H         2.668912         1.508559         1.323369
 H         2.819605        -0.271218         1.374819
 H         1.532959         1.730708        -1.383289
 H         1.736336         0.492355        -2.416939
 H         5.236875        -1.736192        -1.125440
 H         5.220188        -1.090836         0.610302
 H         3.264933        -1.459742        -1.936758
