19
Iteration:  3825
 C        -0.148971         0.033986         0.141102
 C         1.314818        -0.063138        -0.142089
 C         2.490776         0.545008         0.691200
 C         3.222631         0.303939        -0.743170
 C         1.973093         0.872651        -1.465264
 O         4.669435         0.322989        -0.873099
 C         4.726842        -1.063993        -0.415708
 C         3.124395        -1.146182        -0.832456
 O         1.905143        -1.388114        -0.138050
 H        -0.906962        -0.501839        -0.515381
 H        -0.467208        -0.415911         1.185909
 H        -0.668198         0.991458        -0.198963
 H         2.459801         1.602529         1.060589
 H         2.640144        -0.162534         1.599984
 H         1.844312         1.969795        -1.224606
 H         1.781263         0.562589        -2.471842
 H         5.327082        -1.656149        -1.096793
 H         4.988420        -1.248482         0.618632
 H         2.940016        -1.462820        -1.835741
