19
Iteration:  2786charge 0 multiplicity 1
 C        -0.122751         0.045487         0.397831
 C         1.323610        -0.011127        -0.258523
 C         2.548048         0.410801         0.657671
 C         3.203946         0.314727        -0.796143
 C         1.949743         0.915085        -1.457138
 O         4.690531         0.379993        -0.629985
 C         4.582661        -1.091501        -0.354218
 C         3.209317        -1.126105        -0.971136
 O         1.860942        -1.382370        -0.419702
 H         0.056174         0.155061         1.452584
 H        -0.918444         0.745215        -0.039125
 H        -0.594337        -0.891006         0.281048
 H         2.532389         1.460761         0.869764
 H         2.730152        -0.319669         1.374507
 H         1.575001         1.926216        -1.454612
 H         1.744004         0.544899        -2.478390
 H         5.290766        -1.769991        -0.843119
 H         4.667339        -1.308054         0.746150
 H         3.329771        -1.564058        -1.993292
