19
Iteration:  4429
 C        -0.063554         0.035100         0.398150
 C         1.282646         0.029270        -0.247322
 C         2.471760         0.540208         0.593893
 C         3.204532         0.320379        -0.755267
 C         1.956125         0.801804        -1.545280
 O         4.706503         0.285212        -0.779289
 C         4.574281        -1.009759        -0.260305
 C         3.154564        -1.088504        -0.883557
 O         1.900277        -1.457041        -0.350272
 H        -0.838658         0.079308        -0.409055
 H        -0.248781        -0.917345         0.949201
 H        -0.004802         0.763611         1.207128
 H         2.493721         1.630215         0.908092
 H         2.916682        -0.133333         1.416131
 H         1.791175         1.947495        -1.575491
 H         1.688305         0.325670        -2.514593
 H         5.398284        -1.737597        -0.581245
 H         4.409589        -0.979114         0.829717
 H         3.290451        -1.348987        -2.023255
