19
Iteration:  3480
 C        -0.124794        -0.044261         0.262846
 C         1.354768        -0.017631        -0.171233
 C         2.510826         0.660509         0.643974
 C         3.221062         0.326150        -0.709679
 C         1.986054         0.815368        -1.384002
 O         4.612724         0.343140        -0.782238
 C         4.714055        -1.075295        -0.394095
 C         3.106214        -1.161045        -0.857063
 O         1.856472        -1.445875        -0.346761
 H        -0.578609        -0.938809        -0.088887
 H        -0.495417         0.148384         1.343041
 H        -0.389746         0.871490        -0.343722
 H         2.429144         1.734119         0.768802
 H         2.749992         0.179104         1.590333
 H         1.676664         1.882981        -1.250864
 H         1.817639         0.499834        -2.453539
 H         5.139759        -1.698321        -1.107974
 H         5.280999        -1.252439         0.548129
 H         3.211251        -1.407201        -1.885241
