19
Iteration:  2396charge 0 multiplicity 1
 C        -0.152817        -0.009868         0.067906
 C         1.396584         0.016533        -0.174781
 C         2.528301         0.483427         0.702101
 C         3.261680         0.365345        -0.687782
 C         1.922611         0.866864        -1.303317
 O         4.793500         0.276374        -0.812726
 C         4.654377        -1.086115        -0.458665
 C         3.127900        -1.129182        -0.907395
 O         1.754523        -1.346470        -0.232152
 H        -0.411169        -0.781659         0.854299
 H        -0.291380         0.857646         0.751687
 H        -0.719014        -0.158170        -0.793843
 H         2.276363         1.484230         1.098604
 H         2.749865        -0.226773         1.504979
 H         1.702233         1.960348        -1.180238
 H         1.583887         0.576461        -2.304155
 H         5.251851        -1.833466        -0.969634
 H         4.780669        -1.077568         0.670648
 H         3.019227        -1.338242        -2.028207
