19
Iteration:  4831charge 0 multiplicity 1
 C        -0.089350         0.098808         0.073634
 C         1.375222         0.014524        -0.179732
 C         2.493874         0.498643         0.779060
 C         3.193847         0.351704        -0.638311
 C         1.867317         0.794748        -1.378331
 O         4.674142         0.365222        -0.890805
 C         4.632552        -1.112609        -0.377651
 C         3.195068        -1.155570        -0.876675
 O         1.918850        -1.431666        -0.232464
 H        -0.594661        -0.123322        -0.922617
 H        -0.517344        -0.614062         0.775168
 H        -0.365261         1.095958         0.274404
 H         2.474167         1.500748         0.969071
 H         2.779561         0.025348         1.698680
 H         1.622428         1.846186        -1.463249
 H         1.689477         0.217098        -2.280388
 H         5.277411        -1.772832        -0.924020
 H         4.629023        -1.244132         0.719066
 H         3.069303        -1.326489        -1.951006
