19
Iteration:  2303charge 0 multiplicity 1
 C        -0.058538         0.086349         0.316627
 C         1.377148        -0.019656        -0.199730
 C         2.574715         0.481992         0.741656
 C         3.251745         0.294680        -0.679005
 C         2.023808         0.818646        -1.368573
 O         4.661560         0.392544        -0.693972
 C         4.608589        -1.089690        -0.342367
 C         3.130886        -1.143830        -1.056900
 O         1.718755        -1.431330        -0.534551
 H        -0.052834         0.083161         1.364388
 H        -0.454379         1.101688         0.056161
 H        -0.621453        -0.828286        -0.112226
 H         2.353188         1.581279         0.802209
 H         2.863826         0.082062         1.740152
 H         1.805556         1.793471        -1.031912
 H         1.643011         0.642534        -2.388729
 H         5.217530        -1.909239        -0.767607
 H         4.499739        -1.045924         0.745697
 H         3.328078        -1.599350        -1.958024
