19
Iteration:  3734charge 0 multiplicity 1
 C         0.025009         0.037928         0.340616
 C         1.391115        -0.062881        -0.207721
 C         2.541064         0.639279         0.589838
 C         3.160795         0.290137        -0.744407
 C         1.971942         0.781598        -1.481585
 O         4.579716         0.346212        -0.775186
 C         4.656839        -1.065462        -0.239177
 C         3.079181        -1.187879        -0.931299
 O         1.826923        -1.364771        -0.362275
 H        -0.902634        -0.302097        -0.304536
 H        -0.055529        -0.787322         1.028623
 H        -0.383896         0.899848         0.878566
 H         2.445001         1.719175         0.662350
 H         2.696178         0.187188         1.550573
 H         1.850540         1.850260        -1.400963
 H         1.865681         0.245560        -2.452378
 H         5.516083        -1.476401        -0.819765
 H         4.799402        -1.235201         0.807006
 H         3.315561        -1.571107        -1.926691
