19
Iteration:  3273charge 0 multiplicity 1
 C        -0.096240        -0.100409         0.393333
 C         1.335175         0.066445        -0.151116
 C         2.608700         0.709746         0.507043
 C         3.219820         0.336693        -0.806857
 C         1.920611         0.787290        -1.555457
 O         4.689566         0.373717        -0.701561
 C         4.571517        -1.104876        -0.242020
 C         3.128847        -1.158032        -0.852265
 O         1.863046        -1.481260        -0.426462
 H        -0.834483         0.246906        -0.325210
 H        -0.406842        -1.124370         0.804392
 H        -0.082905         0.586168         1.214877
 H         2.412267         1.818944         0.663130
 H         3.060319         0.491853         1.477447
 H         1.607839         1.813838        -1.498761
 H         1.629814         0.190397        -2.481760
 H         5.356509        -1.774557        -0.558266
 H         4.515989        -1.025123         0.891269
 H         3.209446        -1.522536        -1.913745
