19
Iteration:  2511
 C        -0.051280        -0.044236         0.169879
 C         1.342382        -0.035691        -0.160023
 C         2.527960         0.559412         0.734837
 C         3.220178         0.436397        -0.621259
 C         2.011313         0.814426        -1.407949
 O         4.722408         0.267376        -0.817428
 C         4.540440        -1.125234        -0.412695
 C         3.123800        -1.049675        -0.943492
 O         1.814657        -1.363669        -0.317525
 H        -0.323660        -0.214128         1.245786
 H        -0.593947         0.839015        -0.060087
 H        -0.526279        -0.918188        -0.383516
 H         2.372017         1.596167         1.003641
 H         2.912425         0.090011         1.665221
 H         1.694577         1.869457        -1.182578
 H         1.918128         0.629354        -2.472511
 H         5.159609        -1.960990        -0.892846
 H         4.723771        -1.106978         0.637490
 H         3.063931        -1.521757        -1.971251
