19
Iteration:  1122charge 0 multiplicity 1
 C        -0.149431         0.056634         0.214998
 C         1.406579         0.013785        -0.127918
 C         2.538217         0.450736         0.792639
 C         3.242493         0.351019        -0.635256
 C         2.012654         0.910469        -1.335153
 O         4.661320         0.338506        -0.715286
 C         4.582947        -1.166569        -0.456367
 C         3.092810        -1.122738        -1.004036
 O         1.856711        -1.421744        -0.453808
 H        -0.214302        -0.459879         1.226154
 H        -0.425673         1.155536         0.121187
 H        -0.865808        -0.292562        -0.528843
 H         2.470524         1.464676         1.216649
 H         2.854165        -0.299740         1.506693
 H         1.852846         1.963027        -1.328273
 H         1.813673         0.646207        -2.373226
 H         5.148176        -1.711799        -1.208656
 H         4.853467        -1.336060         0.578088
 H         3.078893        -1.295107        -2.146274
