19
Iteration:  1563charge 0 multiplicity 1
 C        -0.131646        -0.010646         0.106892
 C         1.324322         0.027576        -0.073010
 C         2.566811         0.463182         0.732074
 C         3.221040         0.332517        -0.647833
 C         1.930084         0.966607        -1.224027
 O         4.665601         0.300058        -0.897006
 C         4.700780        -1.187911        -0.402383
 C         3.174467        -1.073060        -0.891820
 O         1.813894        -1.418361        -0.436398
 H        -0.647661        -0.750772         0.655922
 H        -0.395196         0.822833         1.014386
 H        -0.702440         0.199598        -0.803132
 H         2.446757         1.602216         0.877926
 H         2.885582        -0.049406         1.670893
 H         1.633908         1.935467        -0.777855
 H         1.682935         0.777957        -2.257925
 H         5.302048        -1.740635        -1.165625
 H         4.976996        -1.369807         0.660742
 H         3.284669        -1.333612        -2.002861
