19
Iteration:  4872charge 0 multiplicity 1
 C        -0.082718        -0.013264         0.256658
 C         1.296178         0.034761        -0.228556
 C         2.488976         0.584334         0.576420
 C         3.205531         0.335756        -0.715243
 C         1.930167         0.901622        -1.479737
 O         4.713846         0.290212        -0.776328
 C         4.688750        -1.148732        -0.272553
 C         3.144268        -1.127212        -0.855802
 O         1.837993        -1.405859        -0.306641
 H        -0.830670         0.183837        -0.575678
 H        -0.270815        -1.041931         0.640849
 H        -0.218997         0.606957         1.084427
 H         2.249364         1.711002         0.650414
 H         2.899735         0.025627         1.502948
 H         1.496670         1.866149        -1.342761
 H         1.766136         0.631089        -2.527683
 H         5.401360        -1.761239        -0.812355
 H         4.824020        -1.012986         0.821294
 H         3.369297        -1.740720        -1.746498
