19
Iteration:  2721
 C        -0.179484        -0.051327         0.125011
 C         1.342022         0.091904        -0.165256
 C         2.527987         0.464955         0.746238
 C         3.266730         0.353450        -0.675841
 C         1.924655         0.908223        -1.381078
 O         4.677622         0.330948        -0.836394
 C         4.618501        -1.098051        -0.410321
 C         3.196712        -1.142321        -0.889905
 O         1.862069        -1.394650        -0.260593
 H        -0.432545        -0.470596         1.105089
 H        -0.633566         0.996543         0.064044
 H        -0.469685        -0.728996        -0.623121
 H         2.752114         1.523022         0.989756
 H         2.745013        -0.228494         1.544666
 H         1.536581         1.914178        -1.322077
 H         1.913920         0.532951        -2.411181
 H         5.281856        -1.786836        -0.932485
 H         4.775330        -1.179360         0.693016
 H         3.100425        -1.447373        -1.996486
