19
Iteration:  2001charge 0 multiplicity 1
 C        -0.115485        -0.051829         0.387745
 C         1.316363         0.052518        -0.212512
 C         2.522399         0.496792         0.663159
 C         3.289133         0.373278        -0.685937
 C         1.920058         0.911718        -1.425387
 O         4.785226         0.276755        -0.749111
 C         4.627586        -1.170220        -0.319895
 C         3.109076        -1.051728        -0.947601
 O         1.774350        -1.351469        -0.457436
 H        -0.226888        -1.143327         0.701640
 H        -0.361423         0.757847         1.052486
 H        -0.774440         0.040532        -0.565925
 H         2.567921         1.493199         1.042133
 H         2.894059        -0.151231         1.396913
 H         1.479287         1.918281        -1.459640
 H         1.831361         0.525438        -2.549444
 H         5.108839        -1.988474        -0.891987
 H         4.748117        -1.168144         0.771888
 H         3.320538        -1.385823        -1.967149
