19
Iteration:  3420
 C        -0.020719        -0.017233         0.342809
 C         1.416769        -0.077673        -0.202349
 C         2.544761         0.652341         0.588030
 C         3.222356         0.283319        -0.791827
 C         1.871402         0.908361        -1.411719
 O         4.652507         0.330906        -0.767532
 C         4.679066        -1.031973        -0.202174
 C         3.178107        -1.160378        -0.917699
 O         1.765742        -1.498970        -0.419775
 H        -0.688590        -0.727831        -0.221834
 H         0.019177        -0.106732         1.397977
 H        -0.464070         0.912623        -0.004356
 H         2.208360         1.691312         0.516629
 H         2.911495         0.419574         1.621774
 H         1.630195         1.968023        -1.217906
 H         1.463944         0.568684        -2.327402
 H         5.350511        -1.764051        -0.738505
 H         4.487210        -1.021968         0.850155
 H         3.259796        -1.514680        -2.001592
