19
Iteration:  2677
 C        -0.143766         0.174514         0.166809
 C         1.338893        -0.115976        -0.170377
 C         2.480327         0.613519         0.713791
 C         3.149396         0.287291        -0.643782
 C         1.925370         0.842270        -1.347941
 O         4.685113         0.349838        -0.836485
 C         4.704560        -1.102462        -0.359344
 C         3.188413        -1.117164        -0.895593
 O         1.885489        -1.528202        -0.377989
 H        -0.470869        -0.771952         0.684923
 H        -0.224967         0.923894         1.013891
 H        -0.815260         0.265085        -0.626354
 H         2.143536         1.684482         0.672236
 H         2.856493         0.400853         1.698032
 H         1.763075         1.904427        -1.212967
 H         1.746933         0.398082        -2.318885
 H         5.439428        -1.570534        -1.064411
 H         4.918257        -1.338425         0.688215
 H         3.364802        -1.608074        -1.925506
