19
Iteration:  2664
 C        -0.150035         0.069007         0.275301
 C         1.327376        -0.001558        -0.153928
 C         2.376359         0.639009         0.682816
 C         3.308382         0.378336        -0.749311
 C         1.938870         0.777467        -1.382947
 O         4.725698         0.314948        -0.795103
 C         4.664213        -1.096069        -0.365093
 C         3.175696        -1.185921        -0.899128
 O         1.903818        -1.500624        -0.389571
 H        -0.585744        -0.897516         0.731731
 H        -0.227207         0.894408         0.966623
 H        -0.768760         0.464780        -0.546917
 H         2.116524         1.667301         0.915940
 H         2.653615         0.062779         1.557797
 H         1.699484         1.913925        -1.264841
 H         1.623946         0.516872        -2.420717
 H         5.406112        -1.879922        -0.837375
 H         4.745793        -1.029126         0.742595
 H         3.150294        -1.289074        -2.043132
