19
Iteration:   239charge 0 multiplicity 1
 C        -0.147560         0.103720         0.290315
 C         1.378754        -0.060855        -0.047387
 C         2.562078         0.425228         0.721763
 C         3.266867         0.346396        -0.687114
 C         1.954268         0.914701        -1.285855
 O         4.687864         0.334861        -0.832916
 C         4.559755        -1.184133        -0.366111
 C         3.150061        -1.072190        -0.974043
 O         1.842085        -1.406336        -0.535481
 H        -0.525379        -0.360802         1.248087
 H        -0.525304         1.126546         0.304038
 H        -0.597793        -0.389834        -0.613902
 H         2.407445         1.429745         1.122891
 H         2.760874        -0.263076         1.525029
 H         1.798750         1.947202        -1.111575
 H         1.740228         0.738417        -2.368331
 H         5.327549        -1.736691        -0.951165
 H         4.744261        -1.284278         0.695409
 H         3.270517        -1.315743        -2.038322
