19
Iteration:  4239charge 0 multiplicity 1
 C        -0.097361        -0.016971         0.371307
 C         1.301052         0.026660        -0.174681
 C         2.543000         0.598315         0.544101
 C         3.193782         0.382979        -0.771576
 C         1.851633         0.734585        -1.499669
 O         4.751012         0.259275        -0.824912
 C         4.616152        -1.047134        -0.181280
 C         3.223181        -1.072644        -0.885229
 O         1.851015        -1.353651        -0.383423
 H        -0.778427        -0.154240        -0.424416
 H        -0.150969        -0.942869         0.938974
 H        -0.286181         0.768437         1.096461
 H         2.383231         1.567129         0.921073
 H         2.746680        -0.177520         1.232062
 H         1.497073         1.753807        -1.530661
 H         1.587669         0.182044        -2.460815
 H         5.187491        -1.831180        -0.561151
 H         4.734937        -0.973053         0.909616
 H         3.441194        -1.521489        -1.887401
