19
Iteration:  1876
 C        -0.192688         0.018841         0.166047
 C         1.348762         0.020963        -0.139769
 C         2.555037         0.529638         0.803220
 C         3.251497         0.385834        -0.640705
 C         1.925676         0.855366        -1.361058
 O         4.761061         0.309652        -0.736450
 C         4.605819        -1.206141        -0.527770
 C         3.089624        -1.071136        -0.984865
 O         1.865093        -1.390205        -0.355704
 H        -0.379518        -0.217775         1.242210
 H        -0.735818         1.038210        -0.160111
 H        -0.500708        -0.795580        -0.475850
 H         2.551411         1.527101         1.300171
 H         2.817870        -0.209089         1.634679
 H         1.774077         1.912731        -1.065777
 H         1.586086         0.531551        -2.327584
 H         5.333784        -1.839940        -1.069631
 H         4.894644        -1.381756         0.519614
 H         3.206396        -1.250768        -2.161064
