19
Iteration:  3968
 C        -0.159085         0.026459         0.239795
 C         1.369867        -0.002852        -0.176330
 C         2.473712         0.523930         0.630648
 C         3.234065         0.308205        -0.772969
 C         1.830476         0.806659        -1.502880
 O         4.719081         0.362923        -0.777538
 C         4.644522        -1.055418        -0.334599
 C         3.165424        -1.127327        -0.908646
 O         1.940685        -1.392289        -0.225988
 H        -0.819872         0.270895        -0.592885
 H        -0.280229        -1.079148         0.543892
 H        -0.276790         0.936062         0.947084
 H         2.630356         1.561795         1.062954
 H         2.697544        -0.283752         1.397960
 H         1.705968         1.878726        -1.351722
 H         1.668530         0.303670        -2.414649
 H         5.146311        -1.880810        -0.741235
 H         4.719266        -1.012933         0.761059
 H         3.118490        -1.552310        -1.913430
