19
Iteration:  3098charge 0 multiplicity 1
 C         0.001863        -0.029458         0.338207
 C         1.351296        -0.002926        -0.229730
 C         2.560042         0.491798         0.652734
 C         3.259254         0.344731        -0.778388
 C         1.881138         0.849868        -1.440565
 O         4.727119         0.365006        -0.739776
 C         4.559713        -1.039284        -0.256213
 C         3.182236        -1.149972        -0.910087
 O         1.741318        -1.417266        -0.443625
 H        -0.153764        -0.674688         1.243218
 H        -0.338993         0.962489         0.672694
 H        -0.691434        -0.427046        -0.388526
 H         2.234747         1.554939         0.713077
 H         2.943964        -0.126960         1.481511
 H         1.692618         1.910913        -1.287564
 H         1.631761         0.649563        -2.493072
 H         5.372840        -1.710526        -0.604791
 H         4.572659        -1.019659         0.831401
 H         3.263340        -1.435895        -2.008095
