19
Iteration:    10charge 0 multiplicity 1
 C        -0.097212        -0.068491         0.305052
 C         1.302395         0.055224        -0.189974
 C         2.519964         0.535993         0.756729
 C         3.248191         0.295409        -0.695820
 C         1.918345         0.921774        -1.312743
 O         4.741241         0.294268        -0.739304
 C         4.593540        -1.119715        -0.460575
 C         3.140024        -1.129549        -0.965009
 O         1.866848        -1.342025        -0.462650
 H        -0.170994        -0.490832         1.268179
 H        -0.563538         1.019354         0.369836
 H        -0.803704        -0.536986        -0.551820
 H         2.513367         1.674005         0.847916
 H         3.008399         0.028869         1.652583
 H         1.786345         2.029239        -1.290972
 H         1.578407         0.392817        -2.147680
 H         5.106386        -1.790193        -1.120538
 H         4.720675        -1.404976         0.648466
 H         3.164906        -1.618132        -1.956861
