19
Iteration:  2729
 C        -0.166320        -0.080378         0.156819
 C         1.359673         0.024714        -0.170191
 C         2.560179         0.612038         0.683682
 C         3.247628         0.312335        -0.677273
 C         1.957215         0.924571        -1.338192
 O         4.656733         0.285598        -0.815390
 C         4.666970        -1.127983        -0.404482
 C         3.106667        -1.097885        -0.879288
 O         1.883023        -1.400103        -0.324230
 H        -0.521653        -0.380193         1.200379
 H        -0.712684         0.820854        -0.105570
 H        -0.574616        -0.835965        -0.529049
 H         2.522409         1.591359         1.103128
 H         2.665209        -0.092393         1.487439
 H         1.703047         2.007739        -1.048795
 H         1.788476         0.581170        -2.393744
 H         5.430392        -1.824111        -0.935365
 H         4.648015        -1.111336         0.694198
 H         3.204081        -1.309203        -1.949552
