19
Iteration:  3400charge 0 multiplicity 1
 C        -0.131589        -0.056020         0.289946
 C         1.374520         0.035378        -0.170049
 C         2.511843         0.612549         0.640996
 C         3.255408         0.387421        -0.723004
 C         1.933318         0.720211        -1.483747
 O         4.708348         0.340915        -0.783507
 C         4.588245        -1.072074        -0.339727
 C         3.141660        -1.167997        -0.854468
 O         1.839947        -1.362895        -0.341318
 H        -0.685781        -0.604302        -0.546331
 H         0.070249        -0.604029         1.225823
 H        -0.606951         0.899857         0.446072
 H         2.456229         1.699282         0.799038
 H         2.801363        -0.071303         1.452916
 H         1.643970         1.778536        -1.375303
 H         1.810390         0.371111        -2.540024
 H         5.398227        -1.653009        -0.867354
 H         4.687956        -1.023029         0.734074
 H         3.139849        -1.527627        -1.908081
