19
Iteration:  4477
 C        -0.172788         0.006117         0.111779
 C         1.355629         0.023454        -0.055349
 C         2.612732         0.643191         0.688299
 C         3.236545         0.340894        -0.683757
 C         1.910830         0.873035        -1.329150
 O         4.644846         0.289144        -0.839311
 C         4.660197        -1.116213        -0.375199
 C         3.157883        -1.157295        -0.944473
 O         1.869596        -1.493498        -0.289642
 H        -0.625482        -0.379537        -0.796200
 H        -0.520888        -0.462540         1.010814
 H        -0.489472         1.096313         0.056086
 H         2.208793         1.670247         0.746290
 H         2.872231         0.321303         1.684131
 H         1.553394         1.877660        -1.321749
 H         1.821795         0.363096        -2.271884
 H         5.369545        -1.590168        -1.033952
 H         4.785114        -1.067514         0.782784
 H         3.233712        -1.500150        -1.991999
