19
Iteration:  3259charge 0 multiplicity 1
 C        -0.072094        -0.034761         0.407370
 C         1.370130        -0.048186        -0.248117
 C         2.540460         0.648819         0.553096
 C         3.254320         0.381529        -0.793201
 C         1.835494         0.705123        -1.516880
 O         4.747105         0.329921        -0.731173
 C         4.557589        -1.077180        -0.205472
 C         3.212259        -1.119968        -0.955272
 O         1.800228        -1.320855        -0.317873
 H        -0.880496        -0.004296        -0.432407
 H        -0.006057        -1.113022         0.690902
 H        -0.455385         0.570846         1.255735
 H         2.505649         1.777721         0.649060
 H         2.800196        -0.020438         1.395537
 H         1.523290         1.768760        -1.610631
 H         1.716632         0.301551        -2.548428
 H         5.400087        -1.663447        -0.709405
 H         4.524300        -1.228950         0.864775
 H         3.307616        -1.567281        -1.926007
