19
Iteration:  2878charge 0 multiplicity 1
 C        -0.080844        -0.079299         0.107923
 C         1.368096        -0.021468        -0.129492
 C         2.587927         0.706270         0.650456
 C         3.224420         0.339085        -0.684496
 C         2.009370         0.861847        -1.302542
 O         4.573940         0.330069        -0.741653
 C         4.608822        -1.185592        -0.458815
 C         3.114067        -1.117148        -0.891695
 O         1.846018        -1.427944        -0.284109
 H        -0.190138        -1.111424         0.551742
 H        -0.597566         0.690498         0.614268
 H        -0.744549         0.145482        -0.785000
 H         2.422970         1.797839         0.706096
 H         2.919642         0.212443         1.663302
 H         1.985002         1.959777        -1.139653
 H         1.609351         0.645999        -2.241384
 H         5.268506        -1.715511        -1.168770
 H         5.045386        -1.348189         0.493544
 H         3.145894        -1.333701        -2.028222
