19
Iteration:    54
 C         0.032209        -0.069919         0.345769
 C         1.392371        -0.059800        -0.186553
 C         2.522228         0.525463         0.713371
 C         3.213976         0.406762        -0.697964
 C         1.986207         0.966634        -1.405248
 O         4.711754         0.309328        -0.696051
 C         4.418882        -1.158097        -0.429349
 C         3.098121        -1.081916        -1.002099
 O         1.866734        -1.404061        -0.452064
 H         0.250788         0.170078         1.376593
 H        -0.609650         0.814801         0.045167
 H        -0.690936        -0.901219         0.140823
 H         2.320678         1.600533         0.982087
 H         2.747329        -0.133492         1.586962
 H         1.685818         1.969527        -1.169579
 H         1.946642         0.645247        -2.409906
 H         5.049450        -1.757212        -1.079357
 H         4.569463        -1.461764         0.649568
 H         3.078810        -1.356232        -2.069439
