19
Iteration:  4811
 C        -0.161159         0.017590         0.119852
 C         1.322024        -0.068524        -0.118154
 C         2.449920         0.580590         0.685119
 C         3.238229         0.412200        -0.726283
 C         2.024271         0.870227        -1.401870
 O         4.680657         0.283761        -0.849337
 C         4.702983        -1.077563        -0.402398
 C         3.105830        -1.114340        -0.847269
 O         1.876342        -1.453053        -0.234747
 H        -0.717531        -0.542936        -0.644464
 H        -0.401504        -0.334891         1.110658
 H        -0.421385         1.073392        -0.090306
 H         2.263855         1.495532         1.121055
 H         2.866660         0.015538         1.476564
 H         1.661298         1.809540        -0.959388
 H         1.889916         0.677091        -2.464059
 H         5.322132        -1.795555        -0.961717
 H         4.989542        -1.196118         0.619618
 H         3.020774        -1.512813        -1.826694
