19
Iteration:  1557charge 0 multiplicity 1
 C        -0.127044         0.023480         0.167491
 C         1.311363        -0.001839        -0.100705
 C         2.594865         0.434801         0.729634
 C         3.234879         0.341547        -0.634049
 C         1.895758         0.955885        -1.254463
 O         4.707604         0.295832        -0.889193
 C         4.671471        -1.163366        -0.419323
 C         3.159640        -1.061535        -0.881133
 O         1.798743        -1.401961        -0.446311
 H        -0.642899        -0.886391         0.651030
 H        -0.361465         0.851924         0.670715
 H        -0.562720         0.164901        -0.868311
 H         2.491316         1.416526         1.144630
 H         2.941787        -0.103289         1.614735
 H         1.554561         1.902555        -0.837387
 H         1.656325         0.739095        -2.316447
 H         5.442604        -1.636229        -1.012019
 H         4.885575        -1.249679         0.646010
 H         3.171617        -1.426403        -1.877209
