19
Iteration:  4461charge 0 multiplicity 1
 C        -0.080111         0.032502         0.220996
 C         1.365083        -0.048295        -0.143748
 C         2.524194         0.632690         0.650258
 C         3.216405         0.302444        -0.700568
 C         1.962492         0.777904        -1.408947
 O         4.655722         0.353932        -0.837965
 C         4.682394        -1.046113        -0.340453
 C         3.124075        -1.164319        -0.775023
 O         1.775422        -1.445285        -0.390394
 H        -0.719425        -0.085797        -0.679593
 H        -0.285398        -0.832876         0.898974
 H        -0.456158         0.988344         0.582207
 H         2.652875         1.698074         0.836483
 H         3.056173         0.101583         1.482547
 H         1.910229         1.900567        -1.246209
 H         1.616795         0.491870        -2.424157
 H         5.353953        -1.712242        -0.949009
 H         4.779635        -1.087322         0.731729
 H         3.223051        -1.421341        -1.867539
