19
Iteration:   844charge 0 multiplicity 1
 C        -0.037286        -0.051191         0.291625
 C         1.330139        -0.048793        -0.197728
 C         2.535864         0.493905         0.675121
 C         3.267623         0.371964        -0.692908
 C         1.959186         0.949314        -1.259823
 O         4.793913         0.279060        -0.711365
 C         4.543570        -1.155637        -0.419968
 C         3.078739        -1.056760        -1.004983
 O         1.796230        -1.356171        -0.480253
 H        -0.051185        -0.418281         1.326138
 H        -0.570844         0.930305         0.202772
 H        -0.758587        -0.727106        -0.278129
 H         2.407074         1.491921         0.958123
 H         2.855128         0.046625         1.587640
 H         1.568215         1.967274        -1.119997
 H         1.752394         0.702018        -2.337423
 H         5.213538        -1.886771        -0.843716
 H         4.500122        -1.230940         0.723773
 H         3.082588        -1.250797        -2.112148
