19
Iteration:   494charge 0 multiplicity 1
 C        -0.055107         0.071119         0.242913
 C         1.367206         0.013626        -0.187516
 C         2.584741         0.386742         0.653974
 C         3.225556         0.308142        -0.727560
 C         1.932661         0.945265        -1.219365
 O         4.738961         0.350352        -0.745095
 C         4.614693        -1.132447        -0.402395
 C         3.134494        -1.094224        -0.964646
 O         1.750610        -1.427137        -0.464356
 H        -0.137517         0.060032         1.356077
 H        -0.621326         1.071282         0.029723
 H        -0.618230        -0.632076        -0.425712
 H         2.306526         1.351802         1.134416
 H         2.938622        -0.277543         1.470005
 H         1.576721         2.002070        -0.823860
 H         1.423543         0.820756        -2.172092
 H         5.117117        -1.903331        -0.939756
 H         4.820537        -1.344004         0.677880
 H         3.282567        -1.475331        -1.965053
