19
Iteration:   383
 C        -0.001485         0.062788         0.327821
 C         1.355757        -0.014454        -0.160612
 C         2.507350         0.466164         0.707811
 C         3.246533         0.376996        -0.648897
 C         1.933926         0.937750        -1.349408
 O         4.645514         0.253338        -0.802951
 C         4.591224        -1.139169        -0.334049
 C         3.133706        -1.077960        -0.958247
 O         1.849992        -1.417160        -0.537969
 H        -0.498451        -0.954770         0.674099
 H         0.061224         0.845618         1.125748
 H        -0.655548         0.231055        -0.538893
 H         2.223166         1.416585         1.216235
 H         2.626017        -0.287816         1.546959
 H         1.727550         2.093396        -1.261867
 H         1.836868         0.631311        -2.465475
 H         5.406442        -1.726643        -0.843487
 H         4.521100        -1.300762         0.771875
 H         3.189643        -1.249930        -2.049023
