19
Iteration:  1789charge 0 multiplicity 1
 C        -0.044368         0.014832         0.292420
 C         1.344010        -0.024126        -0.190195
 C         2.576443         0.450732         0.724314
 C         3.250175         0.341059        -0.658443
 C         1.928288         0.874310        -1.287203
 O         4.735402         0.292701        -0.801468
 C         4.585371        -1.080830        -0.378561
 C         3.158025        -1.045414        -0.947237
 O         1.760162        -1.356294        -0.502608
 H        -0.469432        -1.010694         0.589204
 H        -0.410645         0.997616         0.852986
 H        -0.670086         0.187251        -0.577911
 H         2.483457         1.481132         1.104893
 H         2.802681        -0.329959         1.474960
 H         1.468614         1.918169        -1.395950
 H         1.650956         0.261573        -2.200801
 H         5.364973        -1.822237        -0.713612
 H         4.676927        -0.952445         0.716756
 H         3.171069        -1.651553        -1.909773
