19
Iteration:  4265
 C        -0.032121        -0.072778         0.347160
 C         1.338896        -0.031416        -0.159074
 C         2.503241         0.776414         0.593775
 C         3.298455         0.341591        -0.740121
 C         1.983153         0.807210        -1.428041
 O         4.692622         0.322458        -0.828876
 C         4.589252        -1.060653        -0.218724
 C         3.078118        -1.192810        -0.927505
 O         1.801440        -1.435428        -0.434681
 H        -0.747763        -0.694699        -0.202532
 H         0.023204        -0.617898         1.293230
 H        -0.286487         0.916871         0.705320
 H         2.091261         1.830504         0.563945
 H         2.705746         0.228661         1.515975
 H         1.645377         1.864274        -1.441132
 H         1.754383         0.377490        -2.382017
 H         5.306436        -1.801601        -0.695504
 H         4.759249        -0.988733         0.884590
 H         3.305090        -1.693077        -1.900134
