19
Iteration:  1916charge 0 multiplicity 1
 C        -0.124044         0.014550         0.126837
 C         1.357954         0.082428        -0.142504
 C         2.548164         0.446953         0.824704
 C         3.281918         0.328043        -0.656668
 C         2.005843         0.969590        -1.305891
 O         4.609568         0.329647        -0.862711
 C         4.604456        -1.145466        -0.428387
 C         3.154644        -1.111055        -0.917621
 O         1.830920        -1.484437        -0.380935
 H        -0.423102         0.008851         1.244148
 H        -0.500389         0.949469        -0.061868
 H        -0.704801        -0.683465        -0.461306
 H         2.368635         1.473426         1.288241
 H         3.072184        -0.274006         1.485551
 H         1.823894         2.019431        -1.102444
 H         1.806854         0.759640        -2.418596
 H         5.320637        -1.763313        -1.073842
 H         4.674475        -1.232433         0.692988
 H         3.135067        -1.380312        -1.960439
