19
Iteration:  1382charge 0 multiplicity 1
 C        -0.088882         0.042196         0.253245
 C         1.354445        -0.070281        -0.193875
 C         2.566318         0.508003         0.689906
 C         3.244122         0.403058        -0.626084
 C         1.948257         0.886683        -1.364956
 O         4.724222         0.326705        -0.729431
 C         4.590927        -1.116490        -0.464720
 C         3.118427        -1.135560        -0.937078
 O         1.784235        -1.449103        -0.371543
 H        -0.527952        -0.944174         0.659233
 H        -0.260875         0.863412         0.868312
 H        -0.750007         0.360134        -0.637807
 H         2.485363         1.559496         0.874736
 H         3.044702        -0.081772         1.453417
 H         1.612549         1.937226        -1.081932
 H         1.868298         0.786699        -2.519568
 H         5.294361        -1.604058        -1.151991
 H         4.873175        -1.356955         0.601066
 H         2.990807        -1.353346        -1.981401
