19
Iteration:  2952charge 0 multiplicity 1
 C        -0.026606         0.004194         0.282716
 C         1.383369        -0.031326        -0.152046
 C         2.573273         0.520060         0.642408
 C         3.208611         0.259074        -0.771658
 C         1.972079         0.789018        -1.313636
 O         4.662624         0.398699        -0.793620
 C         4.605111        -0.991424        -0.228575
 C         3.190148        -1.214760        -0.977370
 O         1.712524        -1.381328        -0.468190
 H        -0.137743        -0.916958         0.849493
 H        -0.223377         0.932154         0.920798
 H        -0.898892         0.096890        -0.460109
 H         2.435609         1.585877         0.587529
 H         3.016796         0.131261         1.572727
 H         1.827959         1.887708        -1.228703
 H         1.660889         0.630779        -2.381327
 H         5.499258        -1.569067        -0.489703
 H         4.262046        -1.129276         0.841377
 H         3.249951        -1.523383        -2.069304
