19
Iteration:   731
 C        -0.066419         0.024526         0.238692
 C         1.385351        -0.046937        -0.160768
 C         2.630349         0.376389         0.696594
 C         3.184050         0.387922        -0.674025
 C         1.986590         0.941035        -1.347229
 O         4.707589         0.344356        -0.775604
 C         4.564412        -1.124477        -0.384235
 C         3.119382        -1.081487        -0.928255
 O         1.738645        -1.407419        -0.422624
 H        -0.317416        -0.758095         1.046851
 H        -0.237800         1.098452         0.565696
 H        -0.610354        -0.244269        -0.638651
 H         2.400788         1.377127         1.053339
 H         3.030100        -0.135691         1.581798
 H         1.542671         1.945394        -1.217248
 H         1.813905         0.539712        -2.337188
 H         5.275227        -1.572053        -1.113503
 H         4.754720        -1.237324         0.706005
 H         3.130927        -1.304199        -2.024247
