19
Iteration:  4962
 C        -0.142869         0.036416         0.174232
 C         1.354067         0.035776        -0.158146
 C         2.483375         0.532747         0.713033
 C         3.198342         0.397925        -0.658257
 C         2.040186         0.762097        -1.438805
 O         4.673188         0.341796        -0.824369
 C         4.628575        -1.089075        -0.375036
 C         3.147220        -1.143277        -0.832357
 O         1.848052        -1.457794        -0.313269
 H        -0.574210        -0.667159        -0.535634
 H        -0.400830        -0.163145         1.187759
 H        -0.507411         1.068261        -0.104061
 H         2.334733         1.583606         0.978278
 H         2.855154        -0.204011         1.405782
 H         1.951402         1.877216        -1.414709
 H         1.814919         0.508081        -2.444885
 H         5.301725        -1.759059        -0.995884
 H         4.834280        -0.977495         0.721720
 H         3.112275        -1.379997        -1.945314
