19
Iteration:  2063charge 0 multiplicity 1
 C        -0.136523         0.068258         0.104656
 C         1.327226         0.060256        -0.184338
 C         2.551030         0.429328         0.761016
 C         3.223268         0.419179        -0.602404
 C         1.944715         0.896740        -1.338744
 O         4.643474         0.295331        -0.784192
 C         4.612513        -1.150251        -0.487453
 C         3.145914        -1.128194        -0.931561
 O         1.912337        -1.443549        -0.285148
 H        -0.397004        -0.096771         1.053758
 H        -0.427583         1.164769        -0.026269
 H        -0.762843        -0.542035        -0.589140
 H         2.488532         1.401621         1.332064
 H         3.131408        -0.272657         1.433072
 H         1.577504         1.853260        -1.123057
 H         1.862948         0.628084        -2.341236
 H         5.016777        -1.860311        -1.164934
 H         5.063651        -1.355396         0.498889
 H         3.105510        -1.270020        -2.070984
