19
Iteration:  4887charge 0 multiplicity 1
 C        -0.096351        -0.069738         0.332975
 C         1.312068         0.034902        -0.314370
 C         2.448409         0.658524         0.644990
 C         3.306261         0.339991        -0.780303
 C         1.963561         0.783933        -1.472333
 O         4.726479         0.284314        -0.781984
 C         4.542451        -1.075647        -0.244370
 C         3.176607        -1.143376        -0.861505
 O         1.861517        -1.359007        -0.344049
 H        -0.892019         0.110274        -0.409917
 H        -0.180052        -1.059568         0.752624
 H        -0.065833         0.611301         1.253945
 H         2.379688         1.702403         0.829725
 H         2.478187        -0.105536         1.366186
 H         1.948887         1.910464        -1.389269
 H         1.655300         0.524260        -2.488463
 H         5.270766        -1.773407        -0.670310
 H         4.598895        -1.317622         0.816105
 H         3.134579        -1.323966        -1.966855
