19
Iteration:  4945
 C        -0.136616         0.058659         0.178660
 C         1.300899         0.000065        -0.193757
 C         2.502318         0.521206         0.646037
 C         3.284583         0.294194        -0.745361
 C         1.868208         0.858527        -1.407753
 O         4.732778         0.319334        -0.778403
 C         4.669409        -1.088339        -0.273107
 C         3.164263        -1.161595        -0.944464
 O         1.879374        -1.381551        -0.287101
 H        -0.819405        -0.443068        -0.524652
 H        -0.155050        -0.594595         1.109966
 H        -0.553017         1.093600         0.372260
 H         2.558135         1.593140         0.988763
 H         2.623976        -0.048303         1.594708
 H         1.420934         1.876529        -1.419734
 H         1.732660         0.396652        -2.439914
 H         5.458709        -1.612350        -0.822404
 H         4.410901        -1.120329         0.784113
 H         3.266436        -1.514126        -1.975941
