19
Iteration:  1803charge 0 multiplicity 1
 C        -0.082357         0.029084         0.297008
 C         1.387423         0.033268        -0.121968
 C         2.549275         0.395752         0.720770
 C         3.235346         0.408640        -0.727792
 C         1.870482         0.837632        -1.406042
 O         4.749759         0.301845        -0.812296
 C         4.569924        -1.091778        -0.252562
 C         3.161789        -1.103929        -0.985533
 O         1.789562        -1.366546        -0.501660
 H        -0.216685        -0.848456         0.809857
 H        -0.185061         0.773217         1.134531
 H        -0.805751         0.142149        -0.549994
 H         2.571999         1.318858         1.243766
 H         2.819910        -0.395760         1.389563
 H         1.684711         1.953287        -1.209469
 H         1.711854         0.595075        -2.503742
 H         5.329115        -1.734579        -0.679223
 H         4.527720        -1.268673         0.877266
 H         3.199956        -1.177780        -2.043002
