19
Iteration:  4913
 C        -0.060990        -0.011727         0.306426
 C         1.400486        -0.070924        -0.113008
 C         2.538172         0.666850         0.576074
 C         3.296624         0.435285        -0.769107
 C         1.958791         0.836289        -1.479095
 O         4.658569         0.281449        -0.738645
 C         4.548570        -1.100880        -0.191068
 C         3.119805        -1.120023        -0.895311
 O         1.804213        -1.432106        -0.447045
 H        -0.614601        -0.101482        -0.621525
 H        -0.108866        -1.018660         0.833757
 H        -0.285027         0.654226         1.164621
 H         2.240452         1.749962         0.466643
 H         2.896968         0.061637         1.436877
 H         1.496872         1.831855        -1.647543
 H         1.869876         0.354490        -2.517618
 H         5.355291        -1.801479        -0.568881
 H         4.596939        -1.250650         0.907445
 H         3.099083        -1.261963        -1.960079
