19
Iteration:   815
 C        -0.083656        -0.077546         0.226292
 C         1.320226         0.111157        -0.128344
 C         2.513482         0.568317         0.750794
 C         3.257931         0.363131        -0.757132
 C         1.997135         0.982361        -1.314915
 O         4.684095         0.312399        -0.696874
 C         4.564134        -1.256402        -0.486842
 C         3.080013        -1.096002        -0.976487
 O         1.903013        -1.446467        -0.411049
 H        -0.136341        -0.844078         0.959271
 H        -0.475154         0.800566         0.684582
 H        -0.827086        -0.189942        -0.687372
 H         2.478630         1.731000         1.126359
 H         2.805899        -0.219147         1.579011
 H         1.608909         2.050051        -1.252495
 H         1.655884         0.714164        -2.303521
 H         5.377611        -1.929443        -0.944743
 H         4.825255        -1.354992         0.589210
 H         3.073459        -1.328667        -2.042684
