19
Iteration:  3976
 C        -0.138102         0.020643         0.189814
 C         1.320351        -0.007071        -0.203510
 C         2.523146         0.522036         0.628971
 C         3.216429         0.328420        -0.782318
 C         1.946527         0.823262        -1.452569
 O         4.716220         0.369210        -0.826261
 C         4.601361        -1.052288        -0.379721
 C         3.167131        -1.150398        -0.842119
 O         1.926980        -1.402182        -0.156394
 H        -0.717666         0.196480        -0.703845
 H        -0.593500        -0.920944         0.578101
 H        -0.549703         0.603609         1.016339
 H         2.340567         1.458372         1.116355
 H         2.790580        -0.215495         1.422163
 H         1.529203         1.905706        -1.317730
 H         1.861636         0.383862        -2.462144
 H         5.419306        -1.701911        -0.926374
 H         4.678433        -1.137646         0.755813
 H         2.885858        -1.431573        -1.914665
