19
Iteration:   883charge 0 multiplicity 1
 C        -0.136987         0.077372         0.296028
 C         1.387153         0.042931        -0.181688
 C         2.492640         0.371749         0.727705
 C         3.272567         0.303517        -0.642397
 C         1.981783         0.900492        -1.260337
 O         4.654399         0.319704        -0.752161
 C         4.662870        -1.066268        -0.419545
 C         3.124583        -1.138561        -1.012894
 O         1.800474        -1.410205        -0.519358
 H        -0.050480         0.103339         1.409209
 H        -0.453796         1.103365         0.052548
 H        -0.733155        -0.683582        -0.126303
 H         2.513558         1.522181         0.855632
 H         2.755480        -0.365188         1.525086
 H         1.770753         1.932499        -1.054120
 H         1.724045         0.680063        -2.346039
 H         5.458304        -1.704000        -0.883795
 H         4.701424        -1.246270         0.625709
 H         3.187169        -1.367733        -2.059322
