19
Iteration:  2464
 C        -0.117608        -0.006136         0.303628
 C         1.291586         0.003596        -0.238992
 C         2.536366         0.490648         0.583917
 C         3.276337         0.339731        -0.777341
 C         1.853041         0.916732        -1.439953
 O         4.802440         0.277859        -0.716529
 C         4.613804        -1.116438        -0.287838
 C         3.179041        -1.107610        -0.871780
 O         1.817454        -1.355804        -0.395345
 H        -0.282437        -0.802405         0.958306
 H        -0.262794         0.836663         1.054976
 H        -1.028184        -0.093781        -0.289665
 H         2.358781         1.458852         0.961872
 H         2.816028        -0.094931         1.416544
 H         1.658264         1.987852        -1.468152
 H         1.532336         0.408439        -2.397130
 H         5.346983        -1.654673        -0.818095
 H         4.775734        -1.238181         0.822483
 H         3.150905        -1.381515        -1.973593
