19
Iteration:  4489charge 0 multiplicity 1
 C        -0.144238         0.040531         0.062508
 C         1.383121        -0.030790        -0.114653
 C         2.486774         0.626657         0.779183
 C         3.255413         0.362138        -0.693249
 C         1.881712         0.792144        -1.356284
 O         4.717794         0.352052        -0.861947
 C         4.593290        -1.171608        -0.440216
 C         3.116767        -1.139037        -0.909826
 O         1.947926        -1.406399        -0.231848
 H        -0.484475        -0.742657        -0.626885
 H        -0.519715        -0.335504         1.021012
 H        -0.646894         1.059488        -0.075580
 H         2.578419         1.726997         0.947293
 H         2.905150         0.065973         1.589122
 H         1.606752         1.834596        -1.106754
 H         1.539477         0.586024        -2.378245
 H         5.360751        -1.867461        -0.795140
 H         4.697184        -1.364958         0.700351
 H         3.013274        -1.428298        -1.959814
