19
Iteration:   895
 C        -0.080514         0.105698         0.262302
 C         1.292180        -0.092442        -0.171587
 C         2.518347         0.467227         0.727987
 C         3.245449         0.319369        -0.697362
 C         1.984856         0.968327        -1.269194
 O         4.727284         0.387916        -0.760127
 C         4.637172        -1.165347        -0.426422
 C         3.170735        -1.174875        -1.021415
 O         1.767749        -1.454288        -0.463953
 H        -0.295296        -0.072758         1.360476
 H        -0.493904         1.096291        -0.045196
 H        -0.720340        -0.563604        -0.122593
 H         2.399718         1.479033         1.256817
 H         2.639218        -0.200514         1.617364
 H         1.871812         1.878983        -0.745344
 H         1.731808         0.998950        -2.383181
 H         5.447737        -1.508710        -1.044277
 H         4.699116        -1.283088         0.620297
 H         3.151197        -1.478942        -2.046638
