19
Iteration:   727
 C        -0.039528        -0.005067         0.270703
 C         1.402587        -0.013881        -0.145959
 C         2.606623         0.398833         0.682713
 C         3.202958         0.396639        -0.675880
 C         1.983890         0.908409        -1.348785
 O         4.714425         0.345448        -0.762445
 C         4.544922        -1.129772        -0.410545
 C         3.100288        -1.089362        -0.895169
 O         1.735451        -1.407887        -0.463114
 H        -0.298061        -0.644892         1.038501
 H        -0.348628         0.981256         0.442814
 H        -0.623707        -0.249273        -0.665184
 H         2.438488         1.436374         1.118015
 H         2.956222        -0.062335         1.632285
 H         1.591151         1.927237        -1.173367
 H         1.787568         0.595357        -2.372104
 H         5.269472        -1.664988        -1.066635
 H         4.781333        -1.212570         0.613295
 H         3.194656        -1.273887        -1.943541
