19
Iteration:  2401charge 0 multiplicity 1
 C        -0.162655         0.055764         0.087442
 C         1.341838        -0.034708        -0.142342
 C         2.528243         0.473850         0.733287
 C         3.268968         0.331227        -0.729910
 C         1.915817         0.869168        -1.342721
 O         4.804690         0.288654        -0.821602
 C         4.646877        -1.093387        -0.431274
 C         3.132126        -1.128262        -0.899195
 O         1.782502        -1.366464        -0.243712
 H        -0.122686        -0.836518         0.717209
 H        -0.289106         0.897279         0.804967
 H        -0.842607         0.036759        -0.860244
 H         2.150909         1.446023         1.045677
 H         2.752305        -0.188094         1.584743
 H         1.714767         1.897127        -1.098449
 H         1.485795         0.670080        -2.364086
 H         5.417906        -1.699346        -0.979151
 H         4.699611        -1.053270         0.633667
 H         3.157294        -1.187331        -1.999322
