19
Iteration:  1436charge 0 multiplicity 1
 C        -0.122741         0.023570         0.170208
 C         1.352726        -0.091362        -0.159172
 C         2.539135         0.462207         0.736133
 C         3.288377         0.458760        -0.699973
 C         1.981123         0.998224        -1.235196
 O         4.734331         0.312298        -0.881106
 C         4.612847        -1.156384        -0.410717
 C         3.119383        -1.122936        -0.941040
 O         1.773377        -1.461579        -0.347697
 H        -0.491748        -0.688164         1.010585
 H        -0.399869         0.998920         0.307765
 H        -0.959987        -0.244333        -0.669768
 H         2.442862         1.489446         1.114543
 H         3.084799        -0.129259         1.487137
 H         1.831763         2.036331        -0.850633
 H         1.569078         0.843499        -2.289556
 H         5.421587        -1.621651        -0.965117
 H         4.715477        -1.303008         0.685399
 H         2.984642        -1.437451        -1.954167
