19
Iteration:  3097
 C         0.006866        -0.023156         0.332638
 C         1.356034        -0.005381        -0.232059
 C         2.558985         0.498691         0.653722
 C         3.250829         0.339368        -0.772677
 C         1.884426         0.851407        -1.432327
 O         4.712425         0.366764        -0.744448
 C         4.556784        -1.042943        -0.251226
 C         3.184933        -1.150010        -0.908349
 O         1.747904        -1.418682        -0.449028
 H        -0.135749        -0.669013         1.240225
 H        -0.316503         0.940535         0.624210
 H        -0.701731        -0.446839        -0.369452
 H         2.267844         1.535370         0.720450
 H         2.959065        -0.098109         1.493092
 H         1.679274         1.910251        -1.302447
 H         1.642811         0.675830        -2.450905
 H         5.364248        -1.736644        -0.629715
 H         4.588890        -1.024709         0.822729
 H         3.268777        -1.447362        -1.992423
