19
Iteration:  3397charge 0 multiplicity 1
 C        -0.146093        -0.061474         0.284272
 C         1.366611         0.038875        -0.177534
 C         2.521249         0.593367         0.656029
 C         3.257970         0.378599        -0.734226
 C         1.951364         0.725047        -1.514423
 O         4.686955         0.333393        -0.787748
 C         4.589842        -1.076653        -0.351080
 C         3.176480        -1.134632        -0.841670
 O         1.851748        -1.348554        -0.317766
 H        -0.723620        -0.555085        -0.486169
 H        -0.045726        -0.652524         1.137634
 H        -0.659142         0.889961         0.507737
 H         2.420505         1.645727         0.920940
 H         2.827324        -0.045174         1.517395
 H         1.632818         1.790574        -1.462504
 H         1.773481         0.321483        -2.463995
 H         5.305264        -1.723930        -0.912542
 H         4.653725        -1.074124         0.733199
 H         3.158627        -1.483269        -1.917667
