19
Iteration:  4293charge 0 multiplicity 1
 C        -0.106447        -0.036838         0.213995
 C         1.322328        -0.026788        -0.169448
 C         2.562843         0.577336         0.651232
 C         3.253777         0.354720        -0.715735
 C         1.872879         0.861938        -1.528457
 O         4.715364         0.334438        -0.776965
 C         4.642354        -1.095421        -0.354729
 C         3.100381        -1.130376        -0.927337
 O         1.878935        -1.400123        -0.204693
 H        -0.768176        -0.850100        -0.114259
 H        -0.087702        -0.106618         1.338235
 H        -0.534736         0.982475        -0.018495
 H         2.438558         1.584425         1.037187
 H         2.793973        -0.167865         1.403644
 H         1.662244         1.921744        -1.610730
 H         1.662706         0.385376        -2.559904
 H         5.379838        -1.665754        -0.833247
 H         4.704213        -1.145096         0.732829
 H         3.035705        -1.516787        -1.957811
