19
Iteration:  1656charge 0 multiplicity 1
 C        -0.059133         0.032583         0.322421
 C         1.375310        -0.032610        -0.134359
 C         2.551640         0.440306         0.721082
 C         3.232212         0.346491        -0.661024
 C         1.980100         0.912401        -1.374386
 O         4.685921         0.320003        -0.778798
 C         4.518678        -1.111089        -0.327496
 C         3.162602        -1.090095        -0.960874
 O         1.781475        -1.396791        -0.581082
 H        -0.010791        -0.469203         1.398471
 H        -0.344023         1.032678         0.528758
 H        -0.723381        -0.542308        -0.385553
 H         2.494368         1.428293         1.229827
 H         2.763799        -0.355243         1.475950
 H         1.649237         1.929326        -1.100510
 H         1.953037         0.618321        -2.451192
 H         5.301097        -1.626088        -0.923001
 H         4.714020        -1.099047         0.736218
 H         3.153621        -1.240248        -2.043109
