19
Iteration:  3224charge 0 multiplicity 1
 C        -0.144102         0.015040         0.206007
 C         1.344586        -0.067255        -0.128044
 C         2.512988         0.663082         0.618643
 C         3.240440         0.356717        -0.670906
 C         1.977043         0.786519        -1.431156
 O         4.626159         0.349270        -0.890605
 C         4.632256        -1.073220        -0.291271
 C         3.211797        -1.122365        -0.896754
 O         1.838117        -1.492339        -0.286418
 H        -0.735360        -0.558280        -0.571195
 H        -0.242344        -0.522082         1.118098
 H        -0.466403         1.097615         0.393002
 H         2.308750         1.694056         0.766080
 H         2.892217         0.322219         1.599633
 H         1.671929         1.830273        -1.148687
 H         2.012672         0.502297        -2.443386
 H         5.329374        -1.697403        -0.896312
 H         4.804835        -1.124753         0.759615
 H         3.262781        -1.536655        -1.882413
