19
Iteration:  1663
 C        -0.009915         0.054948         0.311819
 C         1.343309        -0.051162        -0.146545
 C         2.567182         0.397212         0.730978
 C         3.205442         0.363635        -0.665645
 C         1.994242         0.960397        -1.389358
 O         4.666469         0.292053        -0.787403
 C         4.525351        -1.089126        -0.315967
 C         3.135357        -1.034291        -0.950036
 O         1.789683        -1.434139        -0.545351
 H        -0.016675        -0.390370         1.298523
 H        -0.596740         0.984901         0.484303
 H        -0.664654        -0.685459        -0.266158
 H         2.676595         1.392687         1.187077
 H         2.735964        -0.542036         1.295364
 H         1.656975         1.936738        -1.272222
 H         1.953613         0.761899        -2.414798
 H         5.169417        -1.719733        -0.868047
 H         4.820018        -1.066730         0.747714
 H         3.400210        -1.193743        -2.035885
