19
Iteration:  1327charge 0 multiplicity 1
 C        -0.062563        -0.104493         0.309444
 C         1.422365         0.011881        -0.147660
 C         2.563464         0.525795         0.703098
 C         3.244008         0.414513        -0.694712
 C         2.017223         0.909125        -1.344362
 O         4.688345         0.273109        -0.746176
 C         4.503934        -1.192364        -0.345912
 C         3.094629        -1.026663        -0.914254
 O         1.743112        -1.370353        -0.548898
 H        -0.136069        -0.509599         1.344393
 H        -0.412434         0.820429         0.501911
 H        -0.544387        -0.678867        -0.489395
 H         2.359215         1.557110         0.923793
 H         3.150977        -0.019238         1.418754
 H         1.750259         2.028595        -1.332916
 H         1.866409         0.639806        -2.451724
 H         5.185299        -1.785250        -0.987711
 H         4.911894        -1.193902         0.680892
 H         3.132313        -1.332232        -1.935826
