19
Iteration:  3880charge 0 multiplicity 1
 C        -0.092431        -0.045369         0.180405
 C         1.376414        -0.045899        -0.064078
 C         2.544598         0.650954         0.611938
 C         3.228150         0.360793        -0.752045
 C         1.925985         0.883659        -1.430927
 O         4.688035         0.344396        -0.764484
 C         4.633492        -1.109522        -0.394817
 C         3.155358        -1.199179        -0.873862
 O         1.833138        -1.399125        -0.310815
 H        -0.517455        -1.016094        -0.094352
 H        -0.543427         0.049649         1.251900
 H        -0.805611         0.738582        -0.209177
 H         2.355929         1.733929         0.822237
 H         2.918803         0.103264         1.559503
 H         1.669233         1.975147        -1.294271
 H         1.661393         0.405955        -2.345746
 H         5.281351        -1.794311        -0.889453
 H         4.795164        -1.193412         0.690087
 H         3.160955        -1.645992        -1.863018
