19
Iteration:  4794charge 0 multiplicity 1
 C        -0.139684        -0.057141         0.178905
 C         1.355614        -0.011169        -0.205772
 C         2.551923         0.608439         0.650048
 C         3.275960         0.276755        -0.611849
 C         1.975650         0.900369        -1.392798
 O         4.694710         0.396790        -0.826157
 C         4.575835        -1.136603        -0.414983
 C         3.160819        -1.158115        -0.831799
 O         1.774806        -1.424183        -0.294231
 H        -0.584830        -0.942372        -0.277449
 H        -0.159204        -0.151375         1.297321
 H        -0.722662         0.851369        -0.166103
 H         2.434903         1.803154         0.607444
 H         2.678497         0.111332         1.681052
 H         1.887399         1.999203        -1.278290
 H         1.878954         0.514233        -2.430559
 H         5.429055        -1.659893        -0.946562
 H         4.907153        -1.279115         0.657608
 H         3.231137        -1.455013        -1.934722
