19
Iteration:  1273charge 0 multiplicity 1
 C        -0.141143         0.108463         0.186481
 C         1.457737        -0.045507        -0.130400
 C         2.595082         0.437310         0.761036
 C         3.243256         0.337349        -0.617192
 C         1.937790         0.961117        -1.357889
 O         4.632576         0.354982        -0.762302
 C         4.570212        -1.172200        -0.487953
 C         3.149377        -1.103346        -0.924900
 O         1.806609        -1.465028        -0.434699
 H        -0.422873         0.147336         1.258526
 H        -0.312054         1.010407        -0.256904
 H        -0.774335        -0.641683        -0.269421
 H         2.492839         1.368369         1.248711
 H         2.814795        -0.278416         1.523356
 H         1.664909         1.978877        -0.947738
 H         1.930527         0.464370        -2.352556
 H         5.390016        -1.660913        -1.049884
 H         4.839541        -1.206824         0.581179
 H         3.168866        -1.277381        -1.993766
