19
Iteration:  3584
 C        -0.033345         0.031339         0.334544
 C         1.350454        -0.000112        -0.198599
 C         2.573810         0.557065         0.623810
 C         3.276979         0.397235        -0.742470
 C         1.876426         0.740042        -1.544922
 O         4.651612         0.388122        -0.827102
 C         4.585513        -1.027015        -0.209359
 C         3.141934        -1.156359        -0.826921
 O         1.796418        -1.467707        -0.419028
 H        -0.959433         0.030686        -0.297251
 H        -0.035791        -0.838171         0.973415
 H        -0.170336         0.818278         1.003046
 H         2.827376         1.535486         1.110018
 H         2.769323        -0.238358         1.373685
 H         1.720546         1.777942        -1.527279
 H         1.623456         0.356324        -2.554912
 H         5.417231        -1.707303        -0.676926
 H         4.530429        -1.020116         0.906929
 H         3.412107        -1.520653        -1.871625
