19
Iteration:  1628charge 0 multiplicity 1
 C        -0.124732         0.013665         0.288687
 C         1.378254         0.001032        -0.113447
 C         2.508836         0.566364         0.650651
 C         3.232778         0.327758        -0.670545
 C         1.870184         0.924730        -1.312423
 O         4.738212         0.277651        -0.668155
 C         4.641489        -1.152989        -0.436468
 C         3.171821        -1.115763        -1.047960
 O         1.811331        -1.441065        -0.479132
 H        -0.219229        -0.860952         0.817258
 H        -0.257608         1.007165         0.938849
 H        -0.752781        -0.027228        -0.579347
 H         2.503008         1.636621         0.893659
 H         2.743358         0.164281         1.641844
 H         1.643866         1.994479        -0.983580
 H         1.726933         0.642462        -2.375480
 H         5.390780        -1.675129        -1.083582
 H         4.773287        -1.400533         0.665909
 H         3.081812        -1.225737        -2.140838
