19
Iteration:  1486charge 0 multiplicity 1
 C        -0.064926        -0.053160         0.397860
 C         1.336302         0.016530        -0.188194
 C         2.486502         0.511653         0.639376
 C         3.293168         0.391324        -0.646521
 C         1.875085         0.914446        -1.401712
 O         4.847663         0.287034        -0.636268
 C         4.618355        -1.198633        -0.487460
 C         3.119531        -1.065168        -0.978593
 O         1.762723        -1.345367        -0.509410
 H        -0.210937        -0.234214         1.457888
 H        -0.871834         0.867973         0.278323
 H        -0.617859        -0.849275        -0.044576
 H         2.428140         1.578294         1.096210
 H         2.698891        -0.037609         1.593087
 H         1.635890         1.975216        -1.274041
 H         1.833151         0.501528        -2.394289
 H         5.213518        -1.900368        -1.125058
 H         4.706986        -1.472907         0.567313
 H         3.025826        -1.271543        -2.102827
