19
Iteration:  2037
 C        -0.054972         0.031180         0.143065
 C         1.386523        -0.016250        -0.058887
 C         2.521974         0.470861         0.753169
 C         3.262999         0.333126        -0.662750
 C         1.984716         0.907308        -1.304904
 O         4.681792         0.343900        -0.868018
 C         4.588605        -1.092273        -0.359297
 C         3.105777        -1.180788        -1.015457
 O         1.780399        -1.426883        -0.376045
 H        -0.520116        -0.632075         0.976539
 H        -0.275006         1.046864         0.476814
 H        -0.500607        -0.082605        -0.812838
 H         2.441297         1.575582         0.747543
 H         2.726958         0.083807         1.800973
 H         1.617380         1.892708        -0.888264
 H         1.973659         0.775809        -2.417545
 H         5.400112        -1.767024        -0.861384
 H         4.700818        -1.214925         0.740919
 H         3.061408        -1.369192        -2.057758
