19
Iteration:  3653charge 0 multiplicity 1
 C        -0.137201        -0.129210         0.174072
 C         1.366169         0.031679        -0.088309
 C         2.537937         0.580502         0.708525
 C         3.261333         0.348170        -0.746853
 C         2.053288         0.811788        -1.463802
 O         4.693942         0.351977        -0.820413
 C         4.633174        -1.132190        -0.488029
 C         3.084474        -1.100866        -0.791990
 O         1.791073        -1.326372        -0.217072
 H        -0.467147        -0.924350        -0.418473
 H        -0.486568        -0.270900         1.240157
 H        -0.717239         0.700834        -0.303897
 H         2.466700         1.657659         0.944013
 H         2.790260        -0.006663         1.628316
 H         1.694112         1.881331        -1.540320
 H         1.783640         0.383065        -2.428624
 H         5.311520        -1.585766        -1.166023
 H         4.835812        -1.305848         0.644037
 H         3.010203        -1.428207        -1.893455
