19
Iteration:  1277charge 0 multiplicity 1
 C        -0.160726         0.116592         0.201341
 C         1.426567        -0.067847        -0.118257
 C         2.599380         0.421217         0.757021
 C         3.218733         0.337984        -0.638663
 C         1.973110         0.962821        -1.336151
 O         4.668521         0.378789        -0.781679
 C         4.568505        -1.164974        -0.441880
 C         3.142242        -1.129712        -0.949636
 O         1.837914        -1.465326        -0.439748
 H        -0.425766         0.205148         1.282770
 H        -0.483252         1.197333        -0.208808
 H        -0.658972        -0.721810        -0.268699
 H         2.466474         1.438779         1.176101
 H         2.707650        -0.360628         1.548009
 H         1.679474         1.954893        -1.096856
 H         1.853711         0.627037        -2.364901
 H         5.314941        -1.665823        -1.028291
 H         4.785528        -1.279835         0.622581
 H         3.015203        -1.302812        -2.064038
