19
Iteration:  3030charge 0 multiplicity 1
 C        -0.152108        -0.028396         0.073690
 C         1.365657         0.011732        -0.091302
 C         2.567937         0.584130         0.723691
 C         3.217199         0.358425        -0.644637
 C         1.912790         0.898268        -1.409262
 O         4.614690         0.302115        -0.694307
 C         4.688053        -1.144657        -0.557076
 C         3.126226        -1.109026        -0.872636
 O         1.894108        -1.393827        -0.257670
 H        -0.505628         0.018472         1.119236
 H        -0.707570         0.707843        -0.392149
 H        -0.327992        -1.079081        -0.278475
 H         2.503358         1.608379         0.988416
 H         3.006965        -0.147142         1.429120
 H         1.788445         2.025900        -1.319045
 H         1.639430         0.584851        -2.362031
 H         5.219405        -1.786534        -1.323995
 H         5.024923        -1.458525         0.417038
 H         3.077316        -1.424570        -1.962721
