19
Iteration:  4298
 C        -0.163658        -0.029494         0.213766
 C         1.346066        -0.014286        -0.147856
 C         2.560694         0.564398         0.632963
 C         3.247744         0.380303        -0.723273
 C         1.880924         0.830705        -1.515837
 O         4.756912         0.335931        -0.775639
 C         4.658147        -1.083521        -0.364834
 C         3.106522        -1.124355        -0.950363
 O         1.869797        -1.398939        -0.192388
 H        -0.887618        -0.746420        -0.202117
 H        -0.138845        -0.033627         1.289088
 H        -0.624091         0.866292        -0.184953
 H         2.471100         1.501434         1.252927
 H         2.803295        -0.133960         1.464930
 H         1.533416         1.892949        -1.559410
 H         1.679558         0.295081        -2.409887
 H         5.386077        -1.755525        -0.939768
 H         4.759998        -1.129667         0.737673
 H         2.928419        -1.605781        -1.950043
