19
Iteration:  2356
 C        -0.066694        -0.073675         0.225096
 C         1.346496        -0.022019        -0.163416
 C         2.496343         0.647542         0.699981
 C         3.268766         0.370509        -0.609794
 C         2.029204         0.928940        -1.288240
 O         4.716355         0.264466        -0.747574
 C         4.563627        -1.159880        -0.466764
 C         3.082602        -1.107324        -1.003504
 O         1.814475        -1.411367        -0.376511
 H        -0.258913        -0.236322         1.235897
 H        -0.470282         0.885890        -0.231817
 H        -0.616650        -0.818709        -0.453637
 H         2.370345         1.707300         0.816911
 H         2.831399         0.199244         1.593963
 H         1.829900         1.994935        -1.235313
 H         1.843654         0.545555        -2.327520
 H         5.307019        -1.754253        -0.958854
 H         4.496427        -1.328272         0.616575
 H         3.100519        -1.431993        -2.045250
