19
Iteration:  1004
 C        -0.084343         0.127281         0.318918
 C         1.327157         0.007076        -0.088686
 C         2.558051         0.430509         0.722262
 C         3.224178         0.355796        -0.653130
 C         1.984394         0.822218        -1.320604
 O         4.702319         0.326763        -0.735218
 C         4.535858        -1.077504        -0.409389
 C         3.159129        -1.139128        -1.038523
 O         1.813924        -1.439306        -0.574504
 H        -0.242957        -0.909394         0.754226
 H        -0.181449         1.039370         1.030746
 H        -0.689003         0.350649        -0.508568
 H         2.440220         1.480585         1.172268
 H         2.913705        -0.245859         1.575046
 H         1.663782         1.844529        -1.191482
 H         1.767902         0.495758        -2.367109
 H         5.385905        -1.691160        -0.768573
 H         4.504445        -1.087184         0.696025
 H         3.292105        -1.370007        -2.073280
