19
Iteration:  3516charge 0 multiplicity 1
 C        -0.064649        -0.090881         0.081078
 C         1.393942        -0.021984        -0.101978
 C         2.486280         0.618740         0.759645
 C         3.218658         0.396521        -0.687585
 C         1.894715         0.747998        -1.430355
 O         4.690835         0.287786        -0.831104
 C         4.603735        -1.105120        -0.476923
 C         3.117503        -1.084693        -0.956823
 O         1.910683        -1.321164        -0.112492
 H        -0.572827        -0.460751        -0.820007
 H        -0.477379        -0.465285         0.971826
 H        -0.395247         0.989604        -0.010090
 H         2.484207         1.619707         1.170637
 H         2.641377        -0.122375         1.576716
 H         1.462848         1.780758        -1.383180
 H         1.731911         0.296548        -2.369783
 H         5.377102        -1.681220        -1.093565
 H         4.924489        -1.118200         0.582606
 H         2.970889        -1.405610        -2.020878
