19
Iteration:  2555charge 0 multiplicity 1
 C        -0.119708         0.158765         0.142826
 C         1.382595        -0.040843        -0.115649
 C         2.505871         0.559292         0.693147
 C         3.211950         0.269846        -0.710719
 C         1.986082         0.791792        -1.314323
 O         4.647847         0.388624        -0.764559
 C         4.685305        -1.009440        -0.456431
 C         3.138601        -1.255560        -0.899376
 O         1.816204        -1.463251        -0.329076
 H        -0.482643         0.223930         1.249274
 H        -0.490531         0.979768        -0.404583
 H        -0.579037        -0.813796        -0.255253
 H         2.650542         1.538762         1.075694
 H         2.619688        -0.030883         1.620070
 H         1.684349         1.865996        -1.085169
 H         1.802307         0.611553        -2.386058
 H         5.503564        -1.525505        -1.090403
 H         4.827078        -1.453322         0.515558
 H         3.119764        -1.466734        -2.069430
