19
Iteration:  2333charge 0 multiplicity 1
 C        -0.096382         0.029942         0.309884
 C         1.335906         0.032950        -0.253919
 C         2.502376         0.453452         0.686025
 C         3.241018         0.424072        -0.683150
 C         1.875718         0.900110        -1.419085
 O         4.761898         0.266891        -0.696973
 C         4.617388        -1.210569        -0.390757
 C         3.167611        -1.026007        -0.938246
 O         1.857393        -1.394667        -0.410941
 H        -0.028167         0.098051         1.345623
 H        -0.706763         0.914402        -0.155911
 H        -0.781602        -0.818570         0.022523
 H         2.309350         1.379666         1.143751
 H         2.782783        -0.299750         1.351723
 H         1.705330         2.007230        -1.270746
 H         1.541657         0.610491        -2.452448
 H         5.069211        -1.941303        -0.970406
 H         4.731964        -1.305177         0.704475
 H         3.319532        -1.421845        -1.979964
