19
Iteration:  4416charge 0 multiplicity 1
 C        -0.087066         0.012375         0.408458
 C         1.380985        -0.045270        -0.178707
 C         2.579537         0.695793         0.566744
 C         3.214357         0.403519        -0.745689
 C         1.937590         0.761515        -1.513911
 O         4.681426         0.338749        -0.767370
 C         4.525632        -1.106682        -0.215447
 C         3.160839        -1.172893        -0.932752
 O         1.869218        -1.497045        -0.432518
 H        -0.932838         0.264765        -0.283495
 H        -0.244604        -0.982079         0.893332
 H        -0.330264         0.937928         1.049259
 H         2.250346         1.785767         0.687888
 H         2.846651         0.255903         1.546996
 H         1.565814         1.843557        -1.215228
 H         1.884962         0.591095        -2.642400
 H         5.363449        -1.757020        -0.605204
 H         4.545153        -1.087845         0.868007
 H         3.271147        -1.481992        -2.029371
