19
Iteration:  3989charge 0 multiplicity 1
 C        -0.163246        -0.027120         0.105014
 C         1.374447        -0.040140        -0.137469
 C         2.521818         0.616115         0.669065
 C         3.255130         0.420211        -0.644145
 C         1.994259         0.796193        -1.422639
 O         4.632621         0.345670        -0.886051
 C         4.637374        -1.066956        -0.419219
 C         3.097875        -1.142911        -0.859994
 O         1.853087        -1.477593        -0.158692
 H        -0.733906         0.306097        -0.744315
 H        -0.316470        -1.116295         0.369939
 H        -0.222093         0.813576         0.835901
 H         2.460495         1.718012         0.747544
 H         2.938277         0.102462         1.585694
 H         1.764761         1.893457        -1.218963
 H         1.822804         0.545872        -2.446723
 H         5.396445        -1.619147        -0.999370
 H         4.862095        -1.170381         0.688456
 H         3.209256        -1.606039        -1.842309
