19
Iteration:  4980
 C        -0.109936         0.032322         0.076394
 C         1.422277        -0.113415        -0.205529
 C         2.536385         0.632332         0.754538
 C         3.249925         0.357580        -0.602456
 C         2.007715         0.859935        -1.367662
 O         4.620581         0.329105        -0.842516
 C         4.662154        -1.107081        -0.407261
 C         3.146447        -1.116481        -0.825528
 O         1.763156        -1.445840        -0.307120
 H        -0.713167        -0.845086        -0.314566
 H        -0.334205         0.178929         1.174061
 H        -0.473914         0.900464        -0.313528
 H         2.338614         1.701727         0.705726
 H         2.671300         0.130929         1.763077
 H         1.502046         1.775460        -1.254184
 H         1.992672         0.391627        -2.385444
 H         5.369546        -1.570679        -1.022101
 H         5.054267        -1.445992         0.516464
 H         3.041978        -1.469280        -1.800157
