19
Iteration:   694charge 0 multiplicity 1
 C        -0.107419        -0.118160         0.403629
 C         1.321310         0.018853        -0.176466
 C         2.477286         0.526200         0.672422
 C         3.273429         0.405304        -0.633129
 C         1.937852         1.015747        -1.382669
 O         4.748050         0.200022        -0.707728
 C         4.607717        -1.212623        -0.471392
 C         3.147757        -1.049730        -1.023073
 O         1.841791        -1.337327        -0.457541
 H        -0.208184        -0.289799         1.388281
 H        -0.696336         0.697109         0.247328
 H        -0.751371        -0.842042        -0.182072
 H         2.364865         1.644945         0.517693
 H         2.769760         0.090673         1.661881
 H         1.680499         2.044131        -1.182959
 H         1.912501         0.753669        -2.451090
 H         5.408118        -1.917698        -0.755795
 H         4.539797        -1.452003         0.550753
 H         3.220758        -1.135787        -2.081248
