19
Iteration:  1468charge 0 multiplicity 1
 C        -0.071878        -0.059728         0.295972
 C         1.368823         0.065280        -0.185228
 C         2.547648         0.533796         0.767077
 C         3.233051         0.419676        -0.671689
 C         1.962294         0.889371        -1.350105
 O         4.616382         0.248845        -0.701565
 C         4.540937        -1.230708        -0.442213
 C         3.113579        -1.053256        -1.037272
 O         1.882841        -1.346945        -0.466757
 H        -0.043112        -0.233525         1.397088
 H        -0.544918         0.820144         0.249648
 H        -0.492967        -0.925977        -0.298773
 H         2.742542         1.591972         1.090499
 H         2.918109        -0.117410         1.583306
 H         1.823971         1.965074        -1.321618
 H         1.626417         0.426094        -2.276948
 H         5.369436        -1.604053        -1.010514
 H         4.632690        -1.525502         0.609573
 H         3.211450        -1.173775        -2.108716
