19
Iteration:  4723
 C        -0.040308        -0.002519         0.317246
 C         1.419033        -0.012235        -0.148513
 C         2.483399         0.521062         0.643194
 C         3.243593         0.332964        -0.726136
 C         1.927789         0.892974        -1.470073
 O         4.611609         0.329013        -0.787657
 C         4.593466        -1.097451        -0.271011
 C         3.156224        -1.125139        -0.904928
 O         1.855039        -1.414511        -0.437463
 H        -0.800159        -0.670124        -0.199972
 H        -0.075848        -0.157786         1.411354
 H        -0.381943         0.973622         0.000062
 H         2.292051         1.553310         0.724852
 H         2.740649         0.043994         1.556157
 H         1.804189         1.991416        -1.424040
 H         1.799532         0.367306        -2.429998
 H         5.368304        -1.786654        -0.509796
 H         4.629934        -1.129769         0.794839
 H         3.326524        -1.509598        -1.861887
