19
Iteration:  1896
 C        -0.063906         0.024148         0.062812
 C         1.386913        -0.112178        -0.047806
 C         2.540223         0.515781         0.667557
 C         3.245407         0.308823        -0.632755
 C         1.970257         1.011107        -1.204316
 O         4.677653         0.297223        -0.818255
 C         4.599369        -1.099469        -0.484408
 C         3.097303        -1.104501        -0.939846
 O         1.799245        -1.426592        -0.344406
 H        -0.315530         0.043678         1.182880
 H        -0.436985         0.985749        -0.293413
 H        -0.497391        -0.794166        -0.438326
 H         2.412077         1.615260         0.925399
 H         2.736399         0.003307         1.678816
 H         1.635004         1.986282        -0.884059
 H         1.947083         0.759017        -2.237949
 H         5.340018        -1.651683        -1.136789
 H         4.623226        -1.514659         0.529450
 H         3.187568        -1.466493        -2.034914
