19
Iteration:  3879charge 0 multiplicity 1
 C        -0.094212        -0.039718         0.176411
 C         1.374849        -0.051759        -0.053337
 C         2.546122         0.656083         0.612075
 C         3.227705         0.362987        -0.744212
 C         1.930598         0.880772        -1.428811
 O         4.680161         0.341442        -0.763987
 C         4.631711        -1.111511        -0.400083
 C         3.163475        -1.195657        -0.877884
 O         1.830197        -1.398136        -0.312522
 H        -0.534049        -1.012926        -0.102916
 H        -0.541794         0.038947         1.234519
 H        -0.780358         0.715427        -0.238247
 H         2.348552         1.723434         0.814378
 H         2.934263         0.139811         1.555142
 H         1.674487         1.961021        -1.278672
 H         1.678384         0.384989        -2.329538
 H         5.305996        -1.808890        -0.901469
 H         4.818996        -1.151818         0.671082
 H         3.140071        -1.670736        -1.867289
