19
Iteration:   644charge 0 multiplicity 1
 C        -0.141257         0.061957         0.263085
 C         1.343368         0.009360        -0.080440
 C         2.511054         0.508199         0.728768
 C         3.234668         0.310208        -0.679963
 C         1.948529         0.857320        -1.267436
 O         4.731682         0.298886        -0.772939
 C         4.682455        -1.113488        -0.447623
 C         3.135105        -1.142507        -1.042683
 O         1.812245        -1.384846        -0.462687
 H        -0.560679        -0.272960         1.317478
 H        -0.521774         1.165037         0.145200
 H        -0.707934        -0.595661        -0.418702
 H         2.444314         1.545320         1.053284
 H         2.728006        -0.245501         1.501655
 H         1.814271         1.963885        -1.022868
 H         1.599999         0.596709        -2.262754
 H         5.523087        -1.659777        -1.014158
 H         4.764244        -1.350879         0.699386
 H         3.218492        -1.241438        -2.174472
