19
Iteration:  4620
 C        -0.162458        -0.044187         0.233015
 C         1.362625         0.058405        -0.165636
 C         2.518072         0.572168         0.608833
 C         3.260815         0.330585        -0.681418
 C         1.944833         0.809828        -1.415383
 O         4.658064         0.313373        -0.804905
 C         4.760410        -1.092134        -0.360113
 C         3.100583        -1.125315        -0.765959
 O         1.817673        -1.378088        -0.392947
 H        -0.838864         0.001725        -0.605113
 H        -0.161076        -1.018753         0.696101
 H        -0.479724         0.726295         0.986682
 H         2.464506         1.687806         0.729437
 H         2.885086         0.174377         1.551441
 H         1.578698         1.836783        -1.331453
 H         1.777198         0.392716        -2.387790
 H         5.210000        -1.760662        -1.068100
 H         4.979534        -1.132484         0.702892
 H         3.123539        -1.558362        -1.806905
