19
Iteration:  2323
 C        -0.094253         0.068790         0.352409
 C         1.274300        -0.011532        -0.203568
 C         2.522315         0.475294         0.639073
 C         3.232528         0.390479        -0.690167
 C         1.916421         0.927174        -1.385644
 O         4.705383         0.268389        -0.688129
 C         4.598728        -1.156663        -0.354519
 C         3.165994        -1.094866        -0.934163
 O         1.860806        -1.411945        -0.499534
 H        -0.204724         0.220297         1.355670
 H        -0.450596         1.084435        -0.111180
 H        -0.577788        -0.913268        -0.008299
 H         2.512918         1.377234         1.199770
 H         2.923758        -0.262206         1.264690
 H         1.829643         2.016122        -1.527622
 H         1.689151         0.347095        -2.331176
 H         5.396761        -1.631014        -0.886112
 H         4.784136        -1.390528         0.727572
 H         3.211865        -1.311676        -2.021374
