19
Iteration:  4133
 C        -0.053459        -0.060338         0.210721
 C         1.350961         0.021364        -0.162479
 C         2.539381         0.647274         0.591413
 C         3.207574         0.346741        -0.715057
 C         1.986614         0.831317        -1.354879
 O         4.607569         0.360589        -0.822279
 C         4.579875        -1.108534        -0.324026
 C         3.096660        -1.141154        -0.934332
 O         1.884007        -1.469323        -0.267299
 H        -0.501184        -0.918013        -0.411225
 H        -0.048358        -0.306020         1.287054
 H        -0.517878         0.884507        -0.151446
 H         2.544690         1.830608         0.603932
 H         2.925895         0.313263         1.575095
 H         1.820118         1.816770        -1.101371
 H         1.828133         0.584097        -2.409723
 H         5.386286        -1.578994        -0.838189
 H         4.481995        -1.363514         0.829423
 H         3.288580        -1.540069        -1.943237
