19
Iteration:   903charge 0 multiplicity 1
 C        -0.095805         0.118251         0.242437
 C         1.313614        -0.156417        -0.177753
 C         2.527792         0.476709         0.769305
 C         3.185127         0.330934        -0.726177
 C         1.970340         1.054484        -1.277729
 O         4.746485         0.391993        -0.751586
 C         4.623626        -1.182973        -0.459141
 C         3.164051        -1.137779        -0.957986
 O         1.785262        -1.487328        -0.426933
 H        -0.323005        -0.137139         1.295345
 H        -0.379844         1.131168         0.000222
 H        -0.590720        -0.707411        -0.430535
 H         2.301568         1.558221         1.050590
 H         2.982176        -0.289696         1.424314
 H         1.801964         2.041619        -0.816062
 H         1.890313         0.960267        -2.352375
 H         5.245023        -1.895824        -1.123272
 H         4.750313        -1.348471         0.602904
 H         3.117610        -1.404056        -2.009650
