19
Iteration:  1613
 C        -0.087853        -0.015334         0.241979
 C         1.317537         0.007574        -0.203085
 C         2.586190         0.533275         0.737303
 C         3.248404         0.431629        -0.667025
 C         1.942903         0.895212        -1.378745
 O         4.703112         0.299531        -0.669227
 C         4.549006        -1.203495        -0.518787
 C         3.101877        -1.057737        -0.908161
 O         1.889996        -1.408803        -0.397960
 H        -0.484992        -0.981060         0.756216
 H        -0.348782         0.655919         0.995975
 H        -0.757952         0.157296        -0.609410
 H         2.367409         1.519677         1.126561
 H         2.980547        -0.259739         1.341184
 H         1.629053         1.994513        -1.245997
 H         1.625923         0.645872        -2.473798
 H         5.207476        -1.723938        -1.283744
 H         4.797404        -1.523280         0.519834
 H         3.170877        -1.402983        -1.948014
