19
Iteration:  3503
 C        -0.202987        -0.020159         0.097880
 C         1.322062         0.025724        -0.138456
 C         2.508997         0.666042         0.696661
 C         3.197472         0.361646        -0.700270
 C         1.872191         0.828838        -1.362224
 O         4.749590         0.347446        -0.812650
 C         4.701161        -1.132190        -0.515773
 C         3.168412        -1.163250        -0.879993
 O         1.919241        -1.452178        -0.155270
 H        -0.474776        -0.851428        -0.515169
 H        -0.430880        -0.380774         1.144242
 H        -0.702311         0.983477        -0.116980
 H         2.358064         1.701299         0.925181
 H         2.960058         0.081627         1.504265
 H         1.627188         1.934343        -1.231518
 H         1.676081         0.518094        -2.380955
 H         5.373681        -1.736509        -1.072819
 H         4.649192        -1.502284         0.513583
 H         3.030155        -1.445989        -1.907730
