19
Iteration:  4311charge 0 multiplicity 1
 C        -0.242108         0.063650         0.187264
 C         1.347047        -0.002542        -0.121333
 C         2.524945         0.559073         0.677605
 C         3.230668         0.412152        -0.770594
 C         1.909813         0.683726        -1.369706
 O         4.780098         0.336994        -0.799607
 C         4.629436        -1.078751        -0.453985
 C         3.188099        -1.100581        -0.844974
 O         1.857660        -1.404068        -0.246184
 H        -0.438305        -0.908957        -0.287734
 H        -0.686679         0.056105         1.189423
 H        -0.671741         0.916913        -0.307950
 H         2.516349         1.628818         0.817315
 H         2.995897        -0.125455         1.413877
 H         1.458802         1.686494        -1.281388
 H         1.751712         0.281566        -2.345617
 H         5.339578        -1.717311        -1.105892
 H         4.844557        -1.323501         0.598146
 H         3.204146        -1.434000        -1.860512
