19
Iteration:  2245charge 0 multiplicity 1
 C        -0.084583        -0.046962         0.135137
 C         1.353844         0.059947        -0.130052
 C         2.557681         0.567212         0.713945
 C         3.310620         0.363003        -0.613270
 C         1.978587         0.831167        -1.317513
 O         4.734793         0.304911        -0.775315
 C         4.583030        -1.179831        -0.477271
 C         3.110854        -1.095784        -0.939927
 O         1.778913        -1.361562        -0.352257
 H        -0.328894        -1.062374         0.527288
 H        -0.500402         0.832954         0.823484
 H        -0.637401         0.095682        -0.810659
 H         2.440132         1.620066         0.838623
 H         2.609038         0.086064         1.656703
 H         1.428092         1.808126        -1.025287
 H         1.777391         0.541782        -2.356435
 H         5.241558        -1.862644        -0.969661
 H         4.702295        -1.322212         0.642478
 H         2.904650        -1.389707        -1.994374
