19
Iteration:  2297charge 0 multiplicity 1
 C        -0.001340         0.062520         0.266167
 C         1.335810        -0.065405        -0.270638
 C         2.530862         0.504254         0.733100
 C         3.264310         0.295964        -0.687665
 C         2.007824         0.856999        -1.288673
 O         4.691732         0.410955        -0.737972
 C         4.545249        -1.102775        -0.341257
 C         3.148463        -1.172862        -1.006345
 O         1.708550        -1.420915        -0.508940
 H        -0.027196        -0.048118         1.450547
 H        -0.289511         1.098337         0.108270
 H        -0.563574        -0.717479        -0.148170
 H         2.372202         1.576469         0.978133
 H         2.941511         0.134920         1.718145
 H         1.996424         1.983377        -1.028120
 H         1.587575         0.611202        -2.266780
 H         5.362920        -1.828988        -0.644860
 H         4.643490        -1.108554         0.751976
 H         3.161089        -1.663960        -2.093509
