19
Iteration:   439
 C        -0.075566        -0.053342         0.143813
 C         1.348871         0.058058        -0.200705
 C         2.560568         0.526569         0.755431
 C         3.239354         0.357624        -0.636184
 C         1.977850         0.955232        -1.290565
 O         4.706016         0.266447        -0.731075
 C         4.623979        -1.200748        -0.581979
 C         3.087360        -1.067634        -0.920580
 O         1.803526        -1.376425        -0.337754
 H         0.027884        -0.712649         1.112540
 H        -0.572606         0.998705         0.327809
 H        -0.790728        -0.531442        -0.562541
 H         2.448037         1.636858         1.027950
 H         2.660638        -0.204776         1.610378
 H         1.688518         1.965828        -0.718798
 H         1.927960         0.699754        -2.374548
 H         5.198563        -1.786339        -1.305081
 H         4.703142        -1.538391         0.512083
 H         2.978569        -1.250953        -2.016809
