19
Iteration:  4917
 C        -0.036587        -0.020579         0.306967
 C         1.382579        -0.076264        -0.133754
 C         2.559481         0.685508         0.553702
 C         3.295409         0.398958        -0.798219
 C         1.934636         0.831273        -1.460695
 O         4.665974         0.279200        -0.727363
 C         4.557683        -1.100909        -0.191973
 C         3.132811        -1.092375        -0.861458
 O         1.795107        -1.448372        -0.441198
 H        -0.586417        -0.071047        -0.666955
 H        -0.218442        -0.959015         0.820617
 H        -0.325451         0.774774         0.937097
 H         2.216496         1.708446         0.668410
 H         2.891031         0.101712         1.453040
 H         1.581154         1.839955        -1.476630
 H         1.663209         0.471212        -2.438988
 H         5.263534        -1.660733        -0.781409
 H         4.503610        -1.260311         0.897840
 H         3.292690        -1.322849        -1.948829
