19
Iteration:  3826charge 0 multiplicity 1
 C        -0.139843         0.034405         0.135441
 C         1.310343        -0.051552        -0.141886
 C         2.475086         0.529200         0.696540
 C         3.223205         0.311049        -0.751398
 C         1.968212         0.866560        -1.466607
 O         4.673176         0.322549        -0.878521
 C         4.733811        -1.067578        -0.417592
 C         3.124463        -1.137809        -0.829393
 O         1.909150        -1.387916        -0.129406
 H        -0.895195        -0.494664        -0.480110
 H        -0.500704        -0.381188         1.181744
 H        -0.692474         0.996905        -0.228941
 H         2.443550         1.592948         1.068353
 H         2.656547        -0.181784         1.613581
 H         1.840325         1.971294        -1.198536
 H         1.798967         0.540431        -2.467372
 H         5.302874        -1.638979        -1.102065
 H         5.004930        -1.308920         0.639574
 H         2.955877        -1.437458        -1.854161
