19
Iteration:   820
 C        -0.080845        -0.088548         0.250862
 C         1.326431         0.124477        -0.126650
 C         2.500673         0.614606         0.756859
 C         3.270206         0.347626        -0.761549
 C         1.967635         1.031047        -1.335664
 O         4.635956         0.271648        -0.696611
 C         4.602375        -1.257702        -0.457193
 C         3.114006        -1.109215        -1.001043
 O         1.936525        -1.465802        -0.432147
 H        -0.253240        -0.841850         1.079876
 H        -0.514300         0.925969         0.556530
 H        -0.724555        -0.301779        -0.534271
 H         2.485522         1.550410         1.196266
 H         2.796885        -0.007356         1.549299
 H         1.653585         2.036248        -1.134919
 H         1.594701         0.851311        -2.379683
 H         5.282629        -1.914534        -0.956396
 H         4.544826        -1.452578         0.628840
 H         3.142908        -1.264200        -2.113234
