19
Iteration:    75
 C        -0.121144         0.075643         0.340760
 C         1.325840        -0.000092        -0.181637
 C         2.545540         0.405047         0.730269
 C         3.248236         0.372901        -0.660628
 C         1.971645         0.931968        -1.280040
 O         4.656871         0.318657        -0.810623
 C         4.604008        -1.136519        -0.423176
 C         3.167550        -1.128599        -1.066876
 O         1.851079        -1.469129        -0.429734
 H        -0.272243         0.187748         1.352136
 H        -0.636636         0.987319        -0.151329
 H        -0.734970        -0.668444        -0.236282
 H         2.377202         1.496824         0.932165
 H         2.995891        -0.148557         1.592224
 H         1.845282         1.995142        -1.035581
 H         1.750796         0.651427        -2.278528
 H         5.549465        -1.624413        -0.634891
 H         4.567910        -1.083900         0.702420
 H         3.099719        -1.213524        -2.164024
