19
Iteration:  2868
 C        -0.094433        -0.126959         0.086825
 C         1.380816         0.014281        -0.188259
 C         2.596901         0.639426         0.644732
 C         3.222699         0.310983        -0.659535
 C         1.961982         0.950710        -1.312359
 O         4.634089         0.342048        -0.783902
 C         4.620551        -1.158954        -0.436775
 C         3.047759        -1.152067        -0.872633
 O         1.868937        -1.407495        -0.238488
 H        -0.561868        -0.955648         0.700813
 H        -0.220138         0.769785         0.611629
 H        -0.524160        -0.210499        -0.952719
 H         2.529657         1.711338         0.855998
 H         2.990239         0.139394         1.623646
 H         1.616156         1.951885        -0.961203
 H         1.847357         0.737422        -2.340907
 H         5.209698        -1.725333        -1.189256
 H         4.874265        -1.315439         0.579116
 H         2.923691        -1.361355        -1.965066
