19
Iteration:  3129charge 0 multiplicity 1
 C        -0.154608        -0.071100         0.353812
 C         1.302659         0.047287        -0.242176
 C         2.551628         0.595421         0.641140
 C         3.215632         0.388024        -0.729353
 C         1.869066         0.811901        -1.502851
 O         4.704438         0.292105        -0.732480
 C         4.578003        -1.144623        -0.291531
 C         3.211730        -1.088978        -0.891615
 O         1.906508        -1.377845        -0.421736
 H        -0.234438        -1.093816         0.822426
 H        -0.197859         0.573892         1.175123
 H        -0.921301         0.232623        -0.349737
 H         2.368702         1.664879         0.818851
 H         2.911889         0.134035         1.604590
 H         1.667235         1.887211        -1.417605
 H         1.792536         0.272848        -2.389907
 H         5.308212        -1.793542        -0.896352
 H         4.790490        -1.222696         0.759335
 H         3.418756        -1.312826        -1.970981
