19
Iteration:  3065
 C        -0.142301         0.053207         0.218529
 C         1.364525        -0.028529        -0.130631
 C         2.470342         0.533481         0.740708
 C         3.228890         0.349869        -0.628471
 C         1.969860         0.850009        -1.361076
 O         4.701080         0.315361        -0.859992
 C         4.638582        -1.071378        -0.395744
 C         3.176373        -1.106991        -0.932730
 O         1.848699        -1.486641        -0.394490
 H        -0.341399        -0.064027         1.338800
 H        -0.543505         0.937623        -0.271504
 H        -0.634747        -0.773832        -0.296142
 H         2.214950         1.579560         1.051860
 H         2.818567         0.170555         1.730961
 H         1.747840         1.908097        -1.220838
 H         1.835306         0.571384        -2.414801
 H         5.394812        -1.771969        -0.849859
 H         4.617594        -1.083560         0.682498
 H         3.190900        -1.270755        -2.067051
