19
Iteration:   922charge 0 multiplicity 1
 C        -0.077688         0.023738         0.159636
 C         1.320252        -0.023535        -0.115099
 C         2.592558         0.464406         0.756190
 C         3.295015         0.417568        -0.616725
 C         1.983601         0.943416        -1.318252
 O         4.659333         0.238276        -0.765496
 C         4.556451        -1.143012        -0.489851
 C         3.078290        -1.055300        -0.977009
 O         1.866651        -1.409748        -0.386883
 H        -0.404963        -0.490246         1.052476
 H        -0.383033         1.048475         0.290554
 H        -0.732399        -0.583854        -0.656513
 H         2.419098         1.447024         1.142726
 H         2.744226        -0.298573         1.545041
 H         1.686733         1.963774        -0.941862
 H         1.774655         0.550905        -2.296770
 H         5.296577        -1.483798        -1.245589
 H         4.724003        -1.345923         0.613953
 H         3.050155        -1.169024        -2.109841
