19
Iteration:  1979
 C        -0.020293        -0.042516         0.358396
 C         1.367320         0.043208        -0.168797
 C         2.507580         0.553001         0.641975
 C         3.250866         0.386343        -0.725337
 C         1.976761         0.877374        -1.428633
 O         4.693793         0.283302        -0.656312
 C         4.482929        -1.137462        -0.363193
 C         3.109461        -1.125960        -1.043747
 O         1.863590        -1.419052        -0.426451
 H        -0.050987        -1.043346         0.882195
 H         0.020626         0.821344         1.008698
 H        -0.891554         0.117408        -0.391979
 H         2.328470         1.598544         0.815017
 H         2.738990         0.085078         1.547820
 H         1.807569         1.942142        -1.199323
 H         1.781907         0.820323        -2.575456
 H         5.315669        -1.685970        -0.836336
 H         4.254311        -1.446409         0.679286
 H         3.251718        -1.263984        -2.112862
