19
Iteration:   404charge 0 multiplicity 1
 C        -0.094964         0.008409         0.245323
 C         1.359450        -0.004358        -0.154676
 C         2.617587         0.526319         0.741775
 C         3.251385         0.383611        -0.725338
 C         1.948303         0.874505        -1.318827
 O         4.770173         0.325588        -0.642161
 C         4.526415        -1.185322        -0.494188
 C         3.117514        -1.103378        -0.990398
 O         1.772484        -1.392528        -0.451407
 H        -0.360738        -1.031419         0.737950
 H        -0.209926         0.754253         1.048713
 H        -0.767069         0.089209        -0.616874
 H         2.479404         1.591991         0.917653
 H         2.876207         0.080037         1.709983
 H         1.408921         1.854491        -1.185165
 H         1.771509         0.663994        -2.427868
 H         5.227818        -1.839025        -1.080478
 H         4.648280        -1.385427         0.579857
 H         3.107544        -1.279371        -2.088496
