19
Iteration:  2273
 C        -0.125698         0.036211         0.260956
 C         1.318848         0.014887        -0.165712
 C         2.543623         0.441073         0.702604
 C         3.232563         0.392234        -0.679331
 C         1.992670         0.959344        -1.422378
 O         4.663682         0.221761        -0.788130
 C         4.615463        -1.110143        -0.331930
 C         3.134272        -1.038096        -0.941898
 O         1.867174        -1.428509        -0.438217
 H        -0.382627        -0.556075         1.225749
 H        -0.435647         1.010092         0.442230
 H        -0.613502        -0.461864        -0.589152
 H         2.440168         1.485155         1.176765
 H         2.792578        -0.241825         1.596672
 H         1.611141         1.915896        -1.080714
 H         1.753803         0.782736        -2.478824
 H         5.249420        -1.968228        -0.759667
 H         4.843792        -1.154498         0.742836
 H         3.276401        -1.425716        -1.986704
