19
Iteration:  1424charge 0 multiplicity 1
 C        -0.187231         0.078574         0.142654
 C         1.342033        -0.000875        -0.123069
 C         2.574006         0.445188         0.754750
 C         3.221863         0.305997        -0.651938
 C         1.921715         0.953940        -1.253309
 O         4.686125         0.283770        -0.897247
 C         4.684302        -1.107372        -0.439823
 C         3.147361        -1.089842        -0.895099
 O         1.853552        -1.429963        -0.385682
 H        -0.399517        -0.706568         0.924548
 H        -0.342653         0.947830         0.692759
 H        -0.750128        -0.080720        -0.885443
 H         2.482999         1.480167         1.197129
 H         2.695478        -0.343843         1.519495
 H         1.618597         1.969854        -0.940555
 H         1.773608         0.831800        -2.343071
 H         5.245140        -1.861619        -0.987396
 H         4.900284        -1.135310         0.633544
 H         3.263337        -1.367542        -1.956537
