19
Iteration:   591
 C        -0.086716         0.065277         0.140159
 C         1.442101         0.010533        -0.083377
 C         2.587990         0.454781         0.822000
 C         3.216969         0.320194        -0.699309
 C         1.994465         0.913956        -1.311842
 O         4.666077         0.384925        -0.780276
 C         4.545292        -1.131231        -0.477305
 C         3.088293        -1.206156        -1.021625
 O         1.835828        -1.398001        -0.355596
 H        -0.341483        -0.977138         0.569244
 H        -0.379937         0.761046         1.018656
 H        -0.651239         0.043272        -0.751411
 H         2.567610         1.515053         0.996889
 H         2.666497        -0.141151         1.726126
 H         1.676141         2.022719        -1.279325
 H         1.687825         0.500903        -2.285982
 H         5.315564        -1.677089        -1.020219
 H         4.503850        -1.122729         0.645897
 H         3.036837        -1.418077        -2.127976
