19
Iteration:   994charge 0 multiplicity 1
 C        -0.042669         0.071019         0.311556
 C         1.392712         0.056497        -0.118262
 C         2.481242         0.413468         0.702373
 C         3.299016         0.376280        -0.692433
 C         1.986861         0.877078        -1.293873
 O         4.722008         0.346507        -0.742010
 C         4.527732        -1.092279        -0.388186
 C         3.091856        -1.119596        -1.062566
 O         1.823799        -1.458701        -0.491115
 H        -0.555756        -0.867954         0.719097
 H        -0.353625         0.754050         1.218816
 H        -0.594323         0.232825        -0.595243
 H         2.338487         1.519490         0.960542
 H         2.677665        -0.394001         1.506504
 H         1.822450         2.015125        -1.278311
 H         1.718899         0.451978        -2.332745
 H         5.225355        -1.808277        -0.880234
 H         4.610221        -1.242191         0.725383
 H         3.110782        -1.429211        -2.079544
