19
Iteration:  2796charge 0 multiplicity 1
 C        -0.070837         0.030774         0.379224
 C         1.336377        -0.031927        -0.183378
 C         2.513634         0.450366         0.566908
 C         3.234437         0.357305        -0.740351
 C         1.943303         0.920275        -1.449718
 O         4.700840         0.409444        -0.647858
 C         4.646593        -1.085111        -0.325583
 C         3.115150        -1.199848        -0.964001
 O         1.807312        -1.458041        -0.466382
 H        -0.134403         0.309021         1.443845
 H        -0.511853         0.945364        -0.115315
 H        -0.541160        -0.895580         0.218698
 H         2.535063         1.453324         0.979287
 H         2.667524        -0.182189         1.406544
 H         1.730984         1.971845        -1.149335
 H         1.796573         0.623596        -2.516956
 H         5.487867        -1.524562        -0.919404
 H         4.729108        -1.172482         0.787885
 H         3.053786        -1.630207        -1.966729
