19
Iteration:  3616charge 0 multiplicity 1
 C        -0.041490         0.024624         0.341595
 C         1.423293        -0.066259        -0.129280
 C         2.400182         0.665249         0.592670
 C         3.256572         0.379963        -0.773024
 C         1.862786         0.819988        -1.447871
 O         4.716460         0.338143        -0.764509
 C         4.561341        -1.138073        -0.305723
 C         3.173942        -1.130864        -0.918265
 O         1.895603        -1.472437        -0.397867
 H        -0.791412        -0.448970        -0.379522
 H        -0.161102        -0.451537         1.294910
 H        -0.206292         1.062358         0.489071
 H         2.296274         1.771832         0.666443
 H         2.628147         0.312547         1.606579
 H         1.709679         1.849558        -1.247834
 H         1.564437         0.441310        -2.447440
 H         5.422443        -1.795644        -0.747781
 H         4.507011        -1.332684         0.770737
 H         3.172365        -1.494401        -1.990118
