19
Iteration:  3130
 C        -0.149116        -0.073790         0.347066
 C         1.315894         0.046675        -0.241256
 C         2.552795         0.596440         0.636803
 C         3.222579         0.388681        -0.720443
 C         1.865176         0.811612        -1.501464
 O         4.693944         0.292916        -0.734812
 C         4.572639        -1.147878        -0.299988
 C         3.210600        -1.088776        -0.880656
 O         1.905263        -1.381766        -0.422394
 H        -0.225432        -1.102301         0.792702
 H        -0.190390         0.597397         1.192546
 H        -0.887996         0.249260        -0.351009
 H         2.337291         1.693872         0.831801
 H         2.878274         0.183432         1.625295
 H         1.702427         1.869984        -1.388881
 H         1.764940         0.265584        -2.411367
 H         5.302280        -1.769479        -0.900536
 H         4.785666        -1.231943         0.759330
 H         3.427395        -1.304638        -1.978071
