19
Iteration:  2031charge 0 multiplicity 1
 C        -0.062675         0.021040         0.190256
 C         1.372489        -0.019536        -0.107948
 C         2.509231         0.544744         0.770445
 C         3.259007         0.304316        -0.669937
 C         1.982566         0.906988        -1.261321
 O         4.651252         0.318190        -0.850422
 C         4.631845        -1.105065        -0.367484
 C         3.120802        -1.199146        -0.988126
 O         1.784347        -1.402027        -0.433781
 H        -0.337994        -0.743836         0.837128
 H        -0.296541         1.058570         0.569767
 H        -0.506007        -0.028777        -0.853594
 H         2.412967         1.642373         0.825446
 H         2.926139         0.124482         1.685954
 H         1.675792         1.915436        -1.049396
 H         1.797511         0.719082        -2.308180
 H         5.233143        -1.810809        -0.825705
 H         4.654497        -1.091951         0.721689
 H         3.278284        -1.464183        -2.106376
