19
Iteration:  1317
 C        -0.033077        -0.027283         0.301276
 C         1.333234        -0.018559        -0.150701
 C         2.550038         0.504288         0.729033
 C         3.237818         0.381909        -0.656720
 C         1.954547         0.998488        -1.393896
 O         4.689012         0.296687        -0.803640
 C         4.594409        -1.190381        -0.316211
 C         3.103634        -1.095812        -0.939095
 O         1.782928        -1.366330        -0.532384
 H        -0.074678        -0.533772         1.284250
 H        -0.527850         0.840880         0.152430
 H        -0.570875        -0.728577        -0.278155
 H         2.489847         1.484551         1.097069
 H         3.010312        -0.058343         1.532784
 H         1.721769         2.001726        -0.981133
 H         1.839997         0.657451        -2.459817
 H         5.176506        -1.845903        -0.973638
 H         4.708276        -1.458358         0.762498
 H         3.353462        -1.447955        -1.909941
