19
Iteration:  2597
 C        -0.156321        -0.057165         0.276343
 C         1.344900         0.027752        -0.198481
 C         2.462643         0.615816         0.663067
 C         3.296670         0.392178        -0.680076
 C         1.915428         0.827486        -1.401035
 O         4.750086         0.240330        -0.808576
 C         4.581955        -1.146837        -0.350390
 C         3.155598        -1.057129        -0.929077
 O         1.881745        -1.397498        -0.374603
 H        -0.125043        -0.467797         1.307252
 H        -0.309674         1.003071         0.277509
 H        -0.931335        -0.489683        -0.433155
 H         2.234506         1.608960         0.934170
 H         2.743688        -0.045273         1.521969
 H         1.682687         1.948439        -1.282399
 H         1.494075         0.468269        -2.377769
 H         5.566301        -1.681424        -0.648440
 H         4.648166        -1.100804         0.771447
 H         3.250427        -1.531988        -1.966599
