19
Iteration:  3892
 C        -0.121471        -0.086955         0.287818
 C         1.344291         0.087864        -0.252829
 C         2.526470         0.556125         0.624147
 C         3.232694         0.330174        -0.793167
 C         1.876872         0.848545        -1.456585
 O         4.758787         0.332981        -0.780763
 C         4.599792        -1.089495        -0.284497
 C         3.111579        -1.117166        -0.872482
 O         1.864380        -1.420495        -0.276492
 H        -0.467123        -1.019328        -0.137432
 H         0.067881        -0.089939         1.417761
 H        -0.610634         0.785211        -0.263880
 H         2.561867         1.656874         0.886172
 H         2.795697        -0.127364         1.505566
 H         1.676457         1.951349        -1.288801
 H         1.625908         0.674906        -2.490751
 H         5.291644        -1.573024        -0.891824
 H         4.681696        -1.337998         0.792256
 H         3.133119        -1.444600        -1.899309
