19
Iteration:   923charge 0 multiplicity 1
 C        -0.079043         0.023943         0.162204
 C         1.318711        -0.020730        -0.122066
 C         2.593298         0.472938         0.768383
 C         3.297908         0.409754        -0.618251
 C         1.983525         0.930850        -1.313222
 O         4.658911         0.241141        -0.766978
 C         4.553022        -1.144973        -0.490526
 C         3.077764        -1.055154        -0.984401
 O         1.868748        -1.399868        -0.385612
 H        -0.399703        -0.525537         1.045900
 H        -0.400161         1.039128         0.304467
 H        -0.699802        -0.585288        -0.684861
 H         2.417407         1.474622         1.165894
 H         2.726079        -0.313783         1.527467
 H         1.692076         1.950810        -0.964098
 H         1.779868         0.539618        -2.286255
 H         5.318365        -1.501091        -1.242642
 H         4.708934        -1.360029         0.601275
 H         3.044668        -1.155060        -2.108135
