19
Iteration:  4316
 C        -0.193334         0.080801         0.137552
 C         1.312433        -0.030829        -0.063283
 C         2.563590         0.597605         0.667901
 C         3.261858         0.338034        -0.684710
 C         1.856599         0.694299        -1.362754
 O         4.738877         0.348559        -0.824446
 C         4.651935        -1.107403        -0.462009
 C         3.186085        -1.083403        -0.820914
 O         1.871395        -1.418616        -0.281815
 H        -0.545720        -0.879555        -0.303585
 H        -0.552680         0.002581         1.196508
 H        -0.666535         0.902382        -0.485463
 H         2.415910         1.692255         0.833085
 H         2.895418         0.079644         1.572175
 H         1.667758         1.788230        -1.387696
 H         1.608832         0.354978        -2.445892
 H         5.221491        -1.623048        -1.154052
 H         4.907986        -1.250299         0.594424
 H         3.187260        -1.391661        -1.911019
