19
Iteration:  2833
 C        -0.143022         0.003577         0.195686
 C         1.338015         0.023755        -0.111617
 C         2.479048         0.501281         0.784279
 C         3.302735         0.380199        -0.600889
 C         1.897619         0.805869        -1.334869
 O         4.696007         0.322415        -0.918269
 C         4.617804        -1.119762        -0.366376
 C         3.143130        -1.092811        -0.891729
 O         1.896279        -1.395578        -0.433390
 H        -0.419837        -0.161233         1.230988
 H        -0.462195         1.009366        -0.099418
 H        -0.767243        -0.625318        -0.512712
 H         2.441495         1.586490         1.020574
 H         2.811603        -0.306551         1.484415
 H         1.599318         1.839332        -1.403037
 H         1.821366         0.489442        -2.358007
 H         5.369429        -1.724644        -0.829632
 H         4.722015        -1.186125         0.721532
 H         3.354992        -1.350922        -1.981295
