19
Iteration:  1032
 C        -0.042751         0.078257         0.298680
 C         1.331331        -0.046542        -0.165670
 C         2.502031         0.430593         0.655296
 C         3.245869         0.381875        -0.668843
 C         1.908978         0.962201        -1.277768
 O         4.724259         0.289895        -0.743569
 C         4.658692        -1.160454        -0.367397
 C         3.124663        -1.101282        -0.940380
 O         1.771837        -1.418383        -0.543742
 H        -0.225509        -0.597151         1.108878
 H        -0.165509         1.099907         0.427278
 H        -0.764092        -0.128831        -0.578459
 H         2.313142         1.354741         1.138024
 H         2.813210        -0.175287         1.448445
 H         1.652156         1.984970        -0.892028
 H         1.684030         0.784325        -2.327203
 H         5.249448        -1.759581        -1.069290
 H         5.010475        -1.137100         0.659764
 H         3.316475        -1.484860        -1.988406
