19
Iteration:  1228
 C        -0.181857        -0.031946         0.213810
 C         1.283072         0.064443        -0.170037
 C         2.478729         0.567671         0.719634
 C         3.219528         0.368717        -0.656752
 C         2.033060         0.984914        -1.324459
 O         4.709570         0.241844        -0.731141
 C         4.645267        -1.227702        -0.500101
 C         3.101853        -1.070976        -1.001709
 O         1.899740        -1.421687        -0.351198
 H        -0.287754        -0.635783         1.127128
 H        -0.379428         0.922877         0.542130
 H        -0.722484        -0.547375        -0.611700
 H         2.527614         1.610344         1.042869
 H         2.897409        -0.027618         1.489149
 H         2.027803         2.101909        -0.988638
 H         1.802546         0.588297        -2.366651
 H         5.429754        -1.790294        -1.089739
 H         4.758969        -1.543474         0.561646
 H         2.809728        -1.238988        -2.011713
