19
Iteration:   434charge 0 multiplicity 1
 C        -0.101120        -0.043873         0.165563
 C         1.311798         0.100717        -0.183450
 C         2.555016         0.517682         0.736194
 C         3.214588         0.350750        -0.674786
 C         1.984464         0.959489        -1.286404
 O         4.686366         0.227762        -0.690244
 C         4.649101        -1.214400        -0.570407
 C         3.130302        -1.059395        -0.961106
 O         1.818661        -1.366642        -0.318739
 H        -0.079890        -0.791026         0.943551
 H        -0.490695         0.868805         0.442962
 H        -0.716239        -0.540139        -0.577388
 H         2.434542         1.533982         0.941888
 H         2.812674        -0.104674         1.560391
 H         1.777572         1.882777        -0.889451
 H         1.697941         0.718762        -2.328920
 H         5.258330        -1.792792        -1.297451
 H         4.825265        -1.410274         0.457215
 H         3.039841        -1.049633        -2.069912
