19
Iteration:  3429charge 0 multiplicity 1
 C        -0.098307         0.030217         0.354351
 C         1.400974        -0.106325        -0.130034
 C         2.549994         0.583689         0.597711
 C         3.195481         0.374968        -0.807407
 C         1.874174         0.877442        -1.493059
 O         4.623111         0.293585        -0.777038
 C         4.577374        -1.045593        -0.221371
 C         3.255171        -1.167444        -0.876996
 O         1.855965        -1.459476        -0.467061
 H        -0.679895        -0.846404         0.105366
 H        -0.008414         0.080349         1.390560
 H        -0.519728         1.015908         0.046876
 H         2.274613         1.643692         0.687177
 H         3.016198         0.179324         1.519805
 H         1.695977         1.932530        -1.182770
 H         1.506821         0.682700        -2.443770
 H         5.477070        -1.667095        -0.512663
 H         4.665057        -0.996664         0.887010
 H         3.415900        -1.516974        -1.937135
