19
Iteration:   356charge 0 multiplicity 1
 C        -0.143497         0.069440         0.310391
 C         1.281833        -0.013577        -0.176188
 C         2.558199         0.391729         0.663255
 C         3.294357         0.293684        -0.731652
 C         2.024042         0.913758        -1.228608
 O         4.742736         0.351169        -0.847926
 C         4.634332        -1.046127        -0.296435
 C         3.127016        -1.155507        -0.973254
 O         1.727720        -1.407663        -0.517616
 H        -0.265103        -0.759105         0.945211
 H        -0.251172         0.919973         0.988388
 H        -0.879906         0.074857        -0.537281
 H         2.445190         1.362807         1.168301
 H         2.720513        -0.312912         1.479120
 H         2.001984         1.966915        -1.105762
 H         1.743567         0.925836        -2.256021
 H         5.466133        -1.625068        -0.665950
 H         4.561103        -1.186635         0.787918
 H         3.182884        -1.480998        -2.035411
