19
Iteration:  1166charge 0 multiplicity 1
 C        -0.141175         0.101712         0.346075
 C         1.341583         0.000194        -0.203329
 C         2.497982         0.448129         0.708810
 C         3.213649         0.315735        -0.697583
 C         1.910187         0.941920        -1.301230
 O         4.735611         0.312392        -0.773966
 C         4.673621        -1.150319        -0.335720
 C         3.110571        -1.148449        -0.931945
 O         1.870059        -1.416086        -0.595087
 H        -0.521145        -0.753374         1.037058
 H        -0.255356         1.095682         1.015079
 H        -0.906357         0.266226        -0.404103
 H         2.614765         1.504076         0.946997
 H         2.774360        -0.297318         1.465131
 H         1.654462         1.966968        -1.175000
 H         1.613958         0.718708        -2.323014
 H         5.539999        -1.631148        -0.787661
 H         4.699552        -1.228334         0.757984
 H         3.388779        -1.668210        -1.917583
