19
Iteration:   700
 C        -0.090313        -0.113881         0.348261
 C         1.320759         0.066439        -0.196917
 C         2.494139         0.568524         0.729843
 C         3.206274         0.353727        -0.633836
 C         1.949058         0.978627        -1.321396
 O         4.730496         0.214287        -0.742833
 C         4.616855        -1.222271        -0.430826
 C         3.174774        -1.088346        -1.062105
 O         1.832187        -1.327514        -0.487081
 H        -0.009392        -0.397497         1.516660
 H        -0.799388         0.862885         0.301975
 H        -0.782002        -0.733421        -0.203537
 H         2.351420         1.636496         0.755493
 H         2.741167         0.252878         1.725565
 H         1.657767         2.040755        -1.202492
 H         1.756569         0.546247        -2.345093
 H         5.534449        -1.760814        -0.835461
 H         4.727287        -1.554948         0.698755
 H         3.331396        -1.171895        -2.193695
