19
Iteration:  4669charge 0 multiplicity 1
 C        -0.123797         0.047437         0.074410
 C         1.435704        -0.056955        -0.126203
 C         2.461772         0.728141         0.718461
 C         3.199316         0.301531        -0.687569
 C         1.940570         0.797518        -1.332306
 O         4.584987         0.333830        -0.841527
 C         4.598340        -1.148115        -0.404009
 C         3.193523        -1.175148        -0.910034
 O         1.972558        -1.440074        -0.232397
 H        -0.553431         0.245416        -0.952715
 H        -0.526114        -0.931187         0.467163
 H        -0.449460         0.880838         0.693374
 H         2.358095         1.762020         0.895444
 H         2.775035         0.257203         1.643277
 H         1.732256         1.839527        -0.966797
 H         1.780310         0.743693        -2.453480
 H         5.100126        -1.609234        -1.291741
 H         4.799652        -1.301973         0.723737
 H         3.170610        -1.699620        -1.821294
