19
Iteration:  4550charge 0 multiplicity 1
 C        -0.090217         0.029560         0.305706
 C         1.350931        -0.008769        -0.190315
 C         2.485631         0.577274         0.639826
 C         3.256704         0.329026        -0.675951
 C         1.898022         0.815858        -1.400388
 O         4.723359         0.303360        -0.739450
 C         4.686019        -1.099638        -0.342039
 C         3.105185        -1.173327        -0.942186
 O         1.822964        -1.357860        -0.416587
 H        -0.477631        -0.894205        -0.142801
 H        -0.035850        -0.066203         1.382647
 H        -0.691196         0.791792        -0.093122
 H         2.370383         1.655016         0.738400
 H         2.752755         0.194335         1.664704
 H         1.591620         1.852762        -1.383500
 H         1.679870         0.303653        -2.350110
 H         5.437954        -1.502115        -0.991371
 H         4.805215        -1.101372         0.660332
 H         3.088818        -1.577292        -1.982463
