19
Iteration:  1096
 C        -0.140118        -0.040089         0.136588
 C         1.377010         0.009356        -0.138056
 C         2.514377         0.586655         0.751497
 C         3.287591         0.368123        -0.584073
 C         1.842737         0.987940        -1.207451
 O         4.848409         0.227076        -0.741135
 C         4.661814        -1.226027        -0.524614
 C         3.062606        -1.097115        -1.013642
 O         1.807309        -1.389876        -0.401438
 H        -0.336142        -0.213603         1.218339
 H        -0.573014         0.926868        -0.102160
 H        -0.784667        -0.783361        -0.565538
 H         2.405903         1.639891         0.946179
 H         2.813124        -0.113248         1.527726
 H         1.448875         2.108810        -1.046164
 H         1.732972         0.891289        -2.332338
 H         5.371625        -1.843227        -1.125705
 H         4.784331        -1.456324         0.585084
 H         2.950352        -1.197932        -2.121428
