19
Iteration:   603charge 0 multiplicity 1
 C        -0.005821         0.060585         0.145744
 C         1.385473        -0.020627        -0.137232
 C         2.484530         0.423138         0.818930
 C         3.237974         0.335584        -0.651101
 C         2.007266         0.870737        -1.291947
 O         4.592269         0.297492        -0.863460
 C         4.622610        -1.072376        -0.468125
 C         3.113104        -1.076388        -0.977841
 O         1.794354        -1.403375        -0.345123
 H        -0.269410        -0.860513         0.707957
 H        -0.255189         1.014482         0.737589
 H        -0.558124         0.249369        -0.702435
 H         2.370530         1.427439         1.199275
 H         3.004532        -0.202255         1.524093
 H         1.833840         1.950930        -1.018275
 H         1.876383         0.628268        -2.378692
 H         5.453251        -1.565649        -0.875484
 H         4.713771        -1.316920         0.623020
 H         3.065856        -1.456894        -2.001868
