19
Iteration:   968
 C        -0.114167        -0.071142         0.219092
 C         1.379223         0.004814        -0.188743
 C         2.562553         0.579161         0.685022
 C         3.203047         0.410726        -0.620433
 C         1.976629         0.980072        -1.312780
 O         4.674374         0.198882        -0.742508
 C         4.630846        -1.164198        -0.478568
 C         3.136581        -1.102599        -0.936886
 O         1.809744        -1.355573        -0.406491
 H        -0.429795        -1.066826         0.562076
 H        -0.436849         0.588901         1.034548
 H        -0.898092         0.052756        -0.567946
 H         2.480109         1.611429         1.099248
 H         3.029433        -0.112963         1.342792
 H         1.810723         1.835097        -0.760219
 H         1.937857         0.941923        -2.365089
 H         5.153219        -1.894193        -1.179162
 H         4.765145        -1.275953         0.575924
 H         3.115270        -1.389851        -2.018122
