19
Iteration:  1430charge 0 multiplicity 1
 C        -0.170354         0.036767         0.143119
 C         1.353397        -0.056194        -0.135050
 C         2.559268         0.466972         0.753723
 C         3.271575         0.361771        -0.679888
 C         1.943562         0.989845        -1.240380
 O         4.704626         0.296839        -0.897520
 C         4.668568        -1.132590        -0.414338
 C         3.144080        -1.071111        -0.907463
 O         1.814473        -1.459335        -0.369532
 H        -0.388670        -0.731719         0.850108
 H        -0.475897         1.162475         0.428682
 H        -0.907251        -0.046127        -0.582975
 H         2.437094         1.483932         1.126989
 H         2.909748        -0.336446         1.428472
 H         1.689919         1.999654        -0.915365
 H         1.665108         0.872329        -2.291515
 H         5.332121        -1.800435        -1.011395
 H         4.785130        -1.234301         0.676455
 H         2.979476        -1.493889        -1.934891
