19
Iteration:   552
 C        -0.028656        -0.098116         0.323033
 C         1.393571         0.001110        -0.191798
 C         2.479485         0.610045         0.722173
 C         3.242941         0.388399        -0.639774
 C         1.872630         0.999860        -1.384501
 O         4.790247         0.217324        -0.736677
 C         4.603938        -1.200308        -0.432278
 C         3.121174        -1.093638        -0.972608
 O         1.799710        -1.348069        -0.455056
 H        -0.254694        -0.983483         0.925412
 H        -0.160762         0.840952         0.805683
 H        -0.815713        -0.013137        -0.550619
 H         2.281973         1.681427         0.995068
 H         2.674345        -0.052423         1.603243
 H         1.472348         1.927882        -1.154423
 H         1.712693         0.643461        -2.415315
 H         5.162137        -1.951712        -1.068951
 H         4.745139        -1.475051         0.602659
 H         3.097574        -1.388144        -2.026055
