19
Iteration:   880
 C        -0.120501         0.097553         0.307997
 C         1.363988         0.043812        -0.187979
 C         2.509877         0.360131         0.746547
 C         3.242391         0.288461        -0.644588
 C         1.977338         0.912810        -1.280251
 O         4.647923         0.306148        -0.746989
 C         4.669465        -1.057403        -0.419545
 C         3.114427        -1.119844        -0.988612
 O         1.820823        -1.395310        -0.537089
 H        -0.069810         0.056139         1.393293
 H        -0.468878         1.082686         0.085873
 H        -0.674124        -0.858484        -0.178154
 H         2.513810         1.475940         0.828028
 H         2.857752        -0.403334         1.474741
 H         1.758894         2.008785        -1.139575
 H         1.819146         0.467233        -2.273750
 H         5.385882        -1.810670        -0.916546
 H         4.668304        -1.189356         0.694792
 H         3.191284        -1.284098        -2.088883
