19
Iteration:  2248
 C        -0.136051        -0.051542         0.135220
 C         1.369271         0.065303        -0.113248
 C         2.558369         0.546625         0.700412
 C         3.297365         0.366004        -0.619976
 C         1.970900         0.848860        -1.325245
 O         4.760749         0.314060        -0.795293
 C         4.576543        -1.179865        -0.461703
 C         3.112232        -1.094056        -0.934698
 O         1.791591        -1.356534        -0.354349
 H        -0.355992        -0.930890         0.627732
 H        -0.412979         0.793770         0.857377
 H        -0.747610         0.006857        -0.828984
 H         2.435164         1.623759         0.982792
 H         2.609321        -0.009613         1.659057
 H         1.514935         1.794411        -1.140456
 H         1.822624         0.501151        -2.351445
 H         5.267717        -1.864054        -0.929939
 H         4.595550        -1.452040         0.627615
 H         3.026184        -1.371371        -1.937018
