19
Iteration:  3249
 C        -0.022342        -0.080005         0.306396
 C         1.314969         0.072121        -0.200693
 C         2.445987         0.590130         0.528549
 C         3.242712         0.371925        -0.767713
 C         1.826313         0.723183        -1.507935
 O         4.763805         0.273854        -0.757126
 C         4.600633        -1.041286        -0.252323
 C         3.160807        -1.074203        -0.924453
 O         1.868702        -1.358739        -0.286023
 H        -0.857208        -0.002188        -0.476962
 H        -0.096948        -0.966589         1.008586
 H         0.007230         0.799474         0.948663
 H         2.365956         1.580415         1.065502
 H         2.738492         0.016150         1.423723
 H         1.593583         1.800401        -1.485471
 H         1.682575         0.170896        -2.486605
 H         5.327648        -1.799982        -0.690601
 H         4.619288        -1.036193         0.851727
 H         3.241305        -1.518517        -1.911715
