19
Iteration:   892
 C        -0.091311         0.096565         0.274518
 C         1.331750        -0.040723        -0.165825
 C         2.506133         0.438945         0.707471
 C         3.270810         0.322709        -0.671053
 C         1.989399         0.921772        -1.270238
 O         4.705856         0.370173        -0.762170
 C         4.635502        -1.137087        -0.421073
 C         3.160082        -1.171610        -1.034120
 O         1.767010        -1.442667        -0.478986
 H        -0.210979        -0.005779         1.379744
 H        -0.498616         1.045062        -0.037406
 H        -0.914465        -0.589812        -0.125681
 H         2.455806         1.459497         1.228809
 H         2.573866        -0.169784         1.646427
 H         1.831750         1.921802        -0.804836
 H         1.680477         1.018502        -2.308920
 H         5.562414        -1.468791        -1.003762
 H         4.723458        -1.298450         0.653326
 H         3.172417        -1.500597        -2.072089
