19
Iteration:  1526
 C        -0.051301         0.057183         0.320088
 C         1.372349         0.011179        -0.153290
 C         2.547562         0.389707         0.742462
 C         3.244890         0.338237        -0.654096
 C         1.996535         0.898471        -1.329015
 O         4.640350         0.374232        -0.761202
 C         4.509234        -1.158362        -0.414455
 C         3.109142        -1.077122        -1.025144
 O         1.853183        -1.420606        -0.466789
 H        -0.109770        -0.596218         1.204715
 H        -0.297376         1.116400         0.240191
 H        -0.592532        -0.402292        -0.510311
 H         2.593175         1.428766         0.972807
 H         2.780395        -0.287373         1.545303
 H         1.702529         1.997429        -1.259976
 H         1.780569         0.596320        -2.435501
 H         5.437046        -1.611345        -0.828836
 H         4.492446        -1.260309         0.688386
 H         3.142831        -1.326588        -2.066969
