19
Iteration:  1494
 C        -0.081247        -0.034889         0.416856
 C         1.323957        -0.063901        -0.233659
 C         2.443079         0.526694         0.694728
 C         3.293029         0.447794        -0.708998
 C         1.910390         0.932890        -1.362124
 O         4.851806         0.250351        -0.632043
 C         4.633121        -1.168226        -0.470308
 C         3.069212        -1.058409        -0.955603
 O         1.750367        -1.391044        -0.525000
 H        -0.049061        -0.200489         1.541864
 H        -0.612076         1.051053         0.215648
 H        -0.542542        -0.860962        -0.118564
 H         2.602196         1.568968         0.701068
 H         2.757600        -0.026086         1.571149
 H         1.718987         2.036748        -1.163587
 H         1.659509         0.635712        -2.484367
 H         5.397277        -1.644797        -1.164307
 H         4.793494        -1.513662         0.586372
 H         3.110398        -1.356140        -2.002598
