19
Iteration:  4594charge 0 multiplicity 1
 C        -0.051184         0.048652         0.348675
 C         1.416787        -0.035405        -0.160163
 C         2.464829         0.596705         0.670787
 C         3.210432         0.320807        -0.768361
 C         1.946673         0.825317        -1.445410
 O         4.662960         0.335034        -0.788705
 C         4.589489        -1.040083        -0.266667
 C         3.220163        -1.196083        -0.967446
 O         1.824924        -1.463512        -0.437062
 H        -0.808613        -0.242880        -0.391822
 H        -0.065136        -0.601560         1.218587
 H        -0.215629         1.036851         0.690137
 H         2.339275         1.684251         0.753296
 H         2.760145         0.188694         1.653997
 H         1.552889         1.793031        -1.185224
 H         1.831360         0.617553        -2.515288
 H         5.384679        -1.695610        -0.500621
 H         4.254899        -1.007190         0.685582
 H         3.165551        -1.537395        -1.998814
