19
Iteration:  1604charge 0 multiplicity 1
 C        -0.107588        -0.017943         0.193930
 C         1.358131        -0.062713        -0.188048
 C         2.549431         0.485820         0.703218
 C         3.268733         0.397853        -0.633895
 C         1.971111         0.923787        -1.374556
 O         4.700792         0.319144        -0.702640
 C         4.533293        -1.210039        -0.513211
 C         3.090128        -0.997487        -0.960589
 O         1.846399        -1.375239        -0.305152
 H        -0.199197        -1.058900         0.468999
 H        -0.249029         0.683905         1.077691
 H        -0.767369         0.149798        -0.599314
 H         2.550080         1.394971         1.278523
 H         2.880083        -0.199254         1.469299
 H         1.718226         2.071274        -1.358342
 H         1.890542         0.326785        -2.362850
 H         5.160882        -1.759702        -1.307999
 H         4.943155        -1.309801         0.508519
 H         2.926787        -1.204761        -2.025369
