19
Iteration:  1112
 C        -0.181955         0.063391         0.202287
 C         1.344425         0.029818        -0.134455
 C         2.500655         0.454721         0.747900
 C         3.251448         0.359874        -0.656971
 C         1.961107         0.909212        -1.277363
 O         4.705869         0.257436        -0.724983
 C         4.591465        -1.203924        -0.516495
 C         3.198354        -1.026581        -0.984619
 O         1.874873        -1.391234        -0.424483
 H        -0.596183        -0.277847         1.178442
 H        -0.661992         1.084482         0.260615
 H        -0.539611        -0.620430        -0.489147
 H         2.418183         1.546933         0.954297
 H         2.803663        -0.169787         1.614117
 H         1.882782         1.898946        -0.985916
 H         1.627172         0.629947        -2.255471
 H         5.292673        -1.746297        -1.144345
 H         4.799335        -1.503605         0.504963
 H         3.268655        -1.315764        -2.067899
