19
Iteration:   335
 C        -0.027984         0.039940         0.205194
 C         1.394396         0.001475        -0.122620
 C         2.582086         0.420062         0.772286
 C         3.205667         0.329138        -0.665214
 C         1.925993         0.991419        -1.329881
 O         4.623697         0.280676        -0.760266
 C         4.644758        -1.117462        -0.368036
 C         3.113860        -1.118587        -0.965210
 O         1.769078        -1.374973        -0.507071
 H        -0.212607        -0.654921         1.017463
 H        -0.348124         1.008493         0.548413
 H        -0.546618        -0.416975        -0.667924
 H         2.754401         1.416110         1.147310
 H         3.016789        -0.186352         1.531963
 H         1.588361         2.028982        -1.224218
 H         1.533396         0.790075        -2.360085
 H         5.289195        -1.745327        -0.992420
 H         4.940808        -1.307258         0.687110
 H         3.197950        -1.550359        -1.989517
