19
Iteration:  1641
 C        -0.036351         0.008131         0.324176
 C         1.323986        -0.050175        -0.185226
 C         2.507720         0.514095         0.720248
 C         3.284226         0.341551        -0.666885
 C         1.943302         0.903289        -1.263927
 O         4.715175         0.333736        -0.720656
 C         4.651258        -1.151458        -0.408224
 C         3.108828        -1.121959        -1.051680
 O         1.778670        -1.379229        -0.531928
 H        -0.307832        -0.605853         1.164164
 H        -0.408928         1.055215         0.734302
 H        -0.852980        -0.212108        -0.468903
 H         2.274950         1.601482         0.703601
 H         2.907794        -0.024012         1.630025
 H         1.791799         1.938932        -1.276042
 H         1.580711         0.599889        -2.192193
 H         5.456915        -1.744787        -0.752948
 H         4.524779        -1.298510         0.700047
 H         3.307018        -1.480911        -2.086547
