19
Iteration:  4063
 C        -0.001514         0.000634         0.309082
 C         1.388923        -0.058120        -0.169937
 C         2.500333         0.610270         0.601700
 C         3.164260         0.298304        -0.817346
 C         1.960062         0.868727        -1.445758
 O         4.621858         0.379766        -0.729529
 C         4.588751        -1.083644        -0.295681
 C         3.114838        -1.173725        -0.942314
 O         1.860620        -1.450808        -0.327866
 H        -0.520933        -0.716519        -0.264114
 H         0.103268        -0.335201         1.345007
 H        -0.269460         0.981498         0.008366
 H         2.376991         1.660503         0.670289
 H         2.712437         0.146446         1.599449
 H         1.665293         1.926577        -1.116801
 H         1.737038         0.434374        -2.406115
 H         5.443745        -1.669128        -0.812399
 H         4.673985        -1.029590         0.833763
 H         3.334448        -1.390149        -2.074604
