19
Iteration:  3804
 C        -0.037962        -0.033380         0.202354
 C         1.363291         0.081239        -0.145460
 C         2.551446         0.641745         0.626340
 C         3.230384         0.353626        -0.730715
 C         1.972307         0.776640        -1.380509
 O         4.643569         0.356384        -0.858120
 C         4.595861        -1.082660        -0.325575
 C         3.141762        -1.185855        -0.852408
 O         1.794333        -1.484032        -0.293545
 H        -0.694997        -0.345061        -0.608039
 H        -0.325093        -0.735637         1.061465
 H        -0.592486         0.945128         0.385827
 H         2.425169         1.755400         0.616292
 H         3.161323         0.382509         1.552129
 H         1.670651         1.848983        -1.175234
 H         1.893489         0.403187        -2.375235
 H         5.331257        -1.625987        -0.873597
 H         4.669168        -1.292514         0.748238
 H         3.217200        -1.488142        -1.891057
