19
Iteration:  1702charge 0 multiplicity 1
 C        -0.132715        -0.013550         0.232904
 C         1.356564         0.027134        -0.144343
 C         2.509966         0.533943         0.790981
 C         3.224518         0.332943        -0.667453
 C         1.958294         0.902656        -1.232406
 O         4.699404         0.299317        -0.748106
 C         4.656942        -1.156803        -0.463319
 C         3.135512        -1.074519        -1.017527
 O         1.828273        -1.421179        -0.496397
 H        -0.311668        -0.111350         1.368712
 H        -0.593379         0.982468        -0.149140
 H        -0.454255        -0.824575        -0.359762
 H         2.637139         1.627963         0.782525
 H         2.881261         0.195514         1.757751
 H         1.847176         2.002993        -0.801519
 H         1.676814         0.576379        -2.317677
 H         5.201322        -1.884520        -1.185846
 H         4.683568        -1.378614         0.639593
 H         3.049670        -1.435590        -2.069125
