19
Iteration:  2631charge 0 multiplicity 1
 C        -0.009964        -0.156663         0.251159
 C         1.392520         0.078611        -0.152599
 C         2.623586         0.635608         0.616130
 C         3.271929         0.422962        -0.806466
 C         1.973444         0.864675        -1.475989
 O         4.636574         0.296999        -0.714871
 C         4.507909        -1.108527        -0.277737
 C         3.060199        -1.163274        -0.861657
 O         1.782804        -1.403715        -0.390340
 H        -0.244381        -1.104432         0.847829
 H        -0.203906         0.591846         0.989977
 H        -0.807690        -0.090406        -0.535030
 H         2.382540         1.604988         0.999729
 H         3.157902         0.073619         1.385165
 H         1.796759         2.005086        -1.376583
 H         1.621166         0.404322        -2.418762
 H         5.318540        -1.805048        -0.782864
 H         4.748407        -0.959296         0.782505
 H         3.250159        -1.467644        -1.982823
