19
Iteration:  1619charge 0 multiplicity 1
 C        -0.113751        -0.033567         0.271226
 C         1.364308         0.056974        -0.166680
 C         2.568090         0.548420         0.710677
 C         3.219951         0.442191        -0.671251
 C         1.902921         0.885929        -1.378265
 O         4.713802         0.284226        -0.666120
 C         4.601692        -1.173011        -0.489408
 C         3.131055        -1.126151        -0.934898
 O         1.871165        -1.431032        -0.444444
 H        -0.426892        -0.930092         0.779066
 H        -0.346113         0.893242         0.954931
 H        -0.793672         0.202030        -0.603836
 H         2.367772         1.611696         0.992023
 H         2.928884        -0.182244         1.499201
 H         1.608555         1.870931        -1.092515
 H         1.674558         0.793083        -2.388865
 H         5.205500        -1.714344        -1.174054
 H         4.693563        -1.671718         0.488504
 H         3.210987        -1.309618        -2.038968
