19
Iteration:  4095
 C        -0.147203        -0.005640         0.433440
 C         1.327221         0.002720        -0.223411
 C         2.519762         0.530118         0.586615
 C         3.183603         0.419269        -0.765978
 C         1.886075         0.721157        -1.470191
 O         4.800173         0.300579        -0.798610
 C         4.650296        -1.087945        -0.184846
 C         3.175091        -1.026761        -0.871306
 O         1.824779        -1.413024        -0.509720
 H        -0.611757        -0.900285         0.050001
 H        -0.079778         0.234451         1.504346
 H        -0.698580         0.907977         0.258483
 H         2.398936         1.473812         1.040641
 H         2.810649        -0.019086         1.502537
 H         1.468059         1.820304        -1.540867
 H         1.709377         0.200437        -2.424161
 H         5.446060        -1.756221        -0.693319
 H         4.873688        -1.084964         0.884470
 H         3.118167        -1.288481        -1.968835
