19
Iteration:   939
 C        -0.101619        -0.056247         0.127751
 C         1.400346         0.095246        -0.060316
 C         2.499909         0.507006         0.819266
 C         3.231133         0.357111        -0.576691
 C         1.966320         0.881782        -1.306106
 O         4.747347         0.342705        -0.789676
 C         4.561338        -1.257943        -0.552206
 C         3.140846        -1.092944        -1.029208
 O         1.812393        -1.330860        -0.386836
 H        -0.271858        -0.906588         0.858838
 H        -0.624071         0.870762         0.554240
 H        -0.698287        -0.289986        -0.673911
 H         2.607831         1.589246         1.141605
 H         2.890085        -0.025699         1.720116
 H         1.766182         1.948266        -1.162707
 H         1.821757         0.393531        -2.327399
 H         5.198300        -1.970480        -1.064647
 H         4.494660        -1.285473         0.522086
 H         3.052896        -1.291644        -2.072186
