19
Iteration:  2549charge 0 multiplicity 1
 C        -0.172304         0.166004         0.155738
 C         1.346107         0.042203        -0.102997
 C         2.481137         0.540688         0.713449
 C         3.181103         0.209852        -0.726041
 C         1.930956         0.816525        -1.303226
 O         4.707214         0.364244        -0.765100
 C         4.696230        -1.033729        -0.468269
 C         3.178095        -1.239425        -0.935524
 O         1.850459        -1.479881        -0.316786
 H        -0.420501         0.163352         1.180414
 H        -0.632538         0.960888        -0.513510
 H        -0.455528        -0.760197        -0.280126
 H         2.544912         1.674512         0.908052
 H         2.703412        -0.106774         1.572285
 H         1.666209         1.800373        -1.007282
 H         1.910604         0.733621        -2.398940
 H         5.369797        -1.576079        -1.070985
 H         5.035276        -1.220634         0.619408
 H         3.227258        -1.425129        -1.950494
