19
Iteration:  2671
 C        -0.170632         0.146641         0.232643
 C         1.339859        -0.080226        -0.173376
 C         2.415999         0.657684         0.710447
 C         3.228037         0.297976        -0.723105
 C         1.933787         0.827650        -1.340583
 O         4.713467         0.342677        -0.819628
 C         4.706546        -1.093850        -0.352297
 C         3.159777        -1.150959        -0.903553
 O         1.915861        -1.531780        -0.395986
 H        -0.453676        -0.806230         0.652925
 H        -0.161835         0.889231         1.025194
 H        -0.864179         0.326533        -0.659410
 H         1.962962         1.649055         0.837156
 H         2.810844         0.265855         1.693020
 H         1.816994         1.926337        -1.316280
 H         1.618123         0.431523        -2.332774
 H         5.366608        -1.782386        -0.908693
 H         4.871294        -1.297649         0.727833
 H         3.177451        -1.417141        -1.932182
