19
Iteration:  2294charge 0 multiplicity 1
 C         0.019885         0.060004         0.256786
 C         1.337946        -0.077558        -0.269866
 C         2.510130         0.509808         0.712046
 C         3.262765         0.304268        -0.690796
 C         1.989183         0.897044        -1.258869
 O         4.704838         0.403145        -0.762103
 C         4.525646        -1.112653        -0.330065
 C         3.152358        -1.194615        -0.978465
 O         1.718092        -1.417415        -0.501460
 H        -0.000366        -0.134205         1.382450
 H        -0.291702         1.037498         0.097322
 H        -0.682742        -0.680353        -0.212611
 H         2.378997         1.627804         1.002461
 H         2.952772         0.032342         1.692124
 H         2.000817         1.945464        -1.092833
 H         1.659932         0.619307        -2.272027
 H         5.457913        -1.730394        -0.673493
 H         4.654494        -1.161776         0.742859
 H         3.091701        -1.540673        -2.006277
