19
Iteration:  4355
 C        -0.146071        -0.035515         0.167746
 C         1.388519        -0.039547        -0.131498
 C         2.469228         0.555365         0.669787
 C         3.229144         0.346647        -0.672758
 C         2.026648         0.863200        -1.462936
 O         4.694679         0.357906        -0.905964
 C         4.594845        -1.070316        -0.426945
 C         3.105519        -1.143763        -0.828680
 O         1.865279        -1.413623        -0.179588
 H        -0.569520        -0.847390        -0.424950
 H        -0.370702        -0.177138         1.217246
 H        -0.542143         0.939355         0.065258
 H         2.269542         1.594194         0.783462
 H         2.668101        -0.022591         1.591292
 H         2.058723         1.908044        -1.243554
 H         1.942531         0.602585        -2.485097
 H         5.256990        -1.837682        -0.933406
 H         4.857957        -1.160032         0.645960
 H         3.025312        -1.396190        -1.879804
