19
Iteration:   281charge 0 multiplicity 1
 C        -0.083331        -0.057805         0.217579
 C         1.359692         0.022552        -0.150649
 C         2.424110         0.541954         0.719949
 C         3.269704         0.404292        -0.621125
 C         2.054905         1.004113        -1.312081
 O         4.703390         0.293123        -0.670667
 C         4.562060        -1.267870        -0.652049
 C         3.087993        -1.108221        -0.895506
 O         1.881026        -1.386243        -0.356681
 H        -0.288154        -0.116072         1.295699
 H        -0.567020         0.849738        -0.217551
 H        -0.544116        -0.822606        -0.459254
 H         2.246967         1.580332         0.989923
 H         2.816919        -0.173667         1.404393
 H         1.765608         2.024938        -0.932688
 H         1.687329         0.890321        -2.410202
 H         5.016717        -1.843074        -1.469976
 H         4.985232        -1.602602         0.304034
 H         3.002064        -1.340446        -1.989394
