19
Iteration:  2628charge 0 multiplicity 1
 C        -0.014993        -0.165340         0.273960
 C         1.409770         0.081877        -0.132168
 C         2.610359         0.658791         0.590040
 C         3.262499         0.406521        -0.786745
 C         1.977227         0.869008        -1.470314
 O         4.646929         0.294504        -0.722183
 C         4.493609        -1.114006        -0.289538
 C         3.076526        -1.148541        -0.868291
 O         1.774882        -1.418489        -0.406909
 H        -0.220108        -1.072807         0.813449
 H        -0.278805         0.648858         0.959283
 H        -0.733000        -0.125082        -0.630638
 H         2.465352         1.673338         0.963477
 H         3.073158         0.099716         1.437639
 H         1.753501         1.967558        -1.302552
 H         1.604975         0.480817        -2.466000
 H         5.345611        -1.700507        -0.741828
 H         4.750870        -1.054118         0.819328
 H         3.274450        -1.568404        -1.851157
