19
Iteration:  1776
 C        -0.127786         0.030331         0.194367
 C         1.385118        -0.026977        -0.098573
 C         2.558296         0.498478         0.730951
 C         3.257148         0.370371        -0.645903
 C         1.948453         0.904289        -1.308248
 O         4.680051         0.327457        -0.817137
 C         4.647782        -1.120582        -0.370559
 C         3.097980        -1.164980        -0.939506
 O         1.789389        -1.418390        -0.481883
 H        -0.336688        -0.889031         0.891128
 H        -0.242003         0.809523         0.951178
 H        -0.755766         0.096762        -0.692792
 H         2.363531         1.593339         0.936891
 H         2.940321         0.026328         1.664820
 H         1.811881         1.964292        -1.157778
 H         1.770214         0.606485        -2.342061
 H         5.311649        -1.700960        -1.059514
 H         4.773072        -1.317214         0.674642
 H         3.215803        -1.204407        -2.094621
