19
Iteration:  4772
 C        -0.056593        -0.039342         0.311401
 C         1.381453         0.105571        -0.143620
 C         2.462655         0.598916         0.678497
 C         3.215554         0.345715        -0.745741
 C         1.926303         0.787475        -1.467141
 O         4.690146         0.246220        -0.706815
 C         4.597518        -1.110203        -0.312374
 C         3.116692        -1.090103        -0.960663
 O         1.874481        -1.333386        -0.399629
 H        -0.181293        -1.031308        -0.095525
 H        -0.266739        -0.047707         1.412561
 H        -0.889241         0.610163        -0.162767
 H         2.313775         1.789962         0.761962
 H         2.946181        -0.201314         1.339887
 H         1.512839         1.815263        -1.579065
 H         1.750518         0.231113        -2.422480
 H         5.450998        -1.658745        -0.875108
 H         4.798067        -1.446039         0.792892
 H         3.376529        -1.412273        -2.048208
