19
Iteration:   230charge 0 multiplicity 1
 C        -0.049482         0.111295         0.271484
 C         1.371357        -0.044175        -0.178279
 C         2.558262         0.379126         0.702188
 C         3.227135         0.402931        -0.675160
 C         1.910744         0.935550        -1.234504
 O         4.690397         0.325344        -0.863977
 C         4.572441        -1.163937        -0.298730
 C         3.152130        -1.062912        -0.961185
 O         1.812263        -1.460926        -0.504616
 H        -0.227421        -0.532628         1.188366
 H        -0.264802         1.113977         0.472945
 H        -0.720219        -0.126927        -0.530853
 H         2.396626         1.408290         0.801566
 H         2.792040        -0.301586         1.489130
 H         1.702764         1.844206        -0.886906
 H         1.784648         0.791153        -2.279237
 H         5.248176        -1.871354        -0.853533
 H         4.653222        -1.248831         0.757043
 H         3.250489        -1.180213        -2.036327
