19
Iteration:  4202
 C        -0.085541         0.066414         0.204208
 C         1.377601        -0.099883        -0.089243
 C         2.469564         0.670295         0.581222
 C         3.205039         0.304211        -0.731164
 C         2.001481         0.768748        -1.376191
 O         4.593886         0.338168        -0.836358
 C         4.652300        -1.006476        -0.340738
 C         3.156655        -1.191205        -0.914138
 O         1.867828        -1.477088        -0.229091
 H        -0.774141         0.259762        -0.767686
 H        -0.498859        -0.980616         0.561793
 H        -0.463285         0.938021         0.834160
 H         2.371102         1.863057         0.651855
 H         2.977971         0.133704         1.526498
 H         1.785185         1.904368        -1.329069
 H         1.991793         0.406762        -2.412962
 H         5.474696        -1.560596        -1.006806
 H         4.926935        -1.019907         0.714298
 H         3.062822        -1.450045        -1.984007
