19
Iteration:   726
 C        -0.031075        -0.012441         0.274201
 C         1.404716        -0.006933        -0.140182
 C         2.596819         0.412219         0.684802
 C         3.214656         0.397668        -0.675751
 C         1.979871         0.900816        -1.347079
 O         4.713930         0.344904        -0.758931
 C         4.542786        -1.129789        -0.422534
 C         3.094706        -1.091953        -0.888262
 O         1.737094        -1.408087        -0.474913
 H        -0.296576        -0.635568         1.066082
 H        -0.393282         0.983204         0.426731
 H        -0.628227        -0.255721        -0.662810
 H         2.452945         1.447676         1.116805
 H         2.933418        -0.065294         1.620327
 H         1.621992         1.916223        -1.159997
 H         1.777144         0.603213        -2.402129
 H         5.252894        -1.695820        -1.031893
 H         4.794350        -1.219877         0.628525
 H         3.206829        -1.279075        -1.942770
