19
Iteration:   318
 C        -0.099725        -0.010422         0.188448
 C         1.414307         0.026230        -0.127644
 C         2.554249         0.511644         0.753520
 C         3.269855         0.383201        -0.661161
 C         1.956753         0.875764        -1.252584
 O         4.735254         0.334435        -0.736883
 C         4.506334        -1.218622        -0.515468
 C         3.092823        -1.076776        -0.965094
 O         1.831005        -1.380205        -0.435652
 H        -0.421214        -0.498610         1.183162
 H        -0.438068         1.025063         0.129030
 H        -0.687011        -0.587234        -0.522458
 H         2.293240         1.532568         1.076603
 H         2.778604        -0.208741         1.578480
 H         1.843937         1.922552        -0.986292
 H         1.833941         0.467251        -2.269764
 H         5.231493        -1.728542        -1.208240
 H         4.667503        -1.453482         0.531783
 H         3.075409        -1.203667        -2.049970
