19
Iteration:  3272charge 0 multiplicity 1
 C        -0.093076        -0.097580         0.399454
 C         1.335618         0.063183        -0.160625
 C         2.613837         0.705777         0.511620
 C         3.220134         0.339685        -0.809996
 C         1.917173         0.785050        -1.559375
 O         4.693357         0.376055        -0.700867
 C         4.568313        -1.106931        -0.241022
 C         3.136561        -1.158682        -0.854034
 O         1.859068        -1.473348        -0.423485
 H        -0.868841         0.219460        -0.352501
 H        -0.419287        -1.125921         0.794804
 H        -0.120376         0.581575         1.235936
 H         2.412687         1.830605         0.658968
 H         3.053738         0.467542         1.493245
 H         1.584078         1.806435        -1.482010
 H         1.633157         0.173808        -2.485058
 H         5.380858        -1.783853        -0.551237
 H         4.511273        -1.040752         0.882791
 H         3.182903        -1.514368        -1.900727
