19
Iteration:  1536
 C        -0.056503         0.041876         0.183738
 C         1.378463         0.039276        -0.091762
 C         2.574737         0.377011         0.777269
 C         3.236920         0.361433        -0.698429
 C         1.992061         0.868147        -1.305791
 O         4.711973         0.345160        -0.803727
 C         4.533809        -1.054187        -0.383486
 C         3.111874        -1.081983        -1.060254
 O         1.789949        -1.432042        -0.424813
 H        -0.248394        -0.483955         1.147410
 H        -0.311033         0.927220         0.640998
 H        -0.825306        -0.276376        -0.521564
 H         2.509882         1.303190         1.285076
 H         2.826954        -0.334702         1.552365
 H         1.672492         1.919637        -1.124052
 H         1.765445         0.387723        -2.316661
 H         5.220049        -1.727723        -0.922679
 H         4.534094        -1.226995         0.701631
 H         3.140136        -1.289846        -2.106286
