19
Iteration:  3685charge 0 multiplicity 1
 C        -0.110259         0.014870         0.058112
 C         1.303092        -0.042229        -0.145967
 C         2.531608         0.598038         0.663951
 C         3.237145         0.356837        -0.683478
 C         1.939305         0.856615        -1.292341
 O         4.630550         0.248953        -0.909721
 C         4.652832        -1.096439        -0.476319
 C         3.141374        -1.093068        -0.827130
 O         1.934523        -1.443309        -0.168946
 H        -0.542798        -0.763534        -0.460406
 H        -0.554353        -0.028848         1.088854
 H        -0.418072         0.982549        -0.409144
 H         2.315643         1.671972         0.870181
 H         2.759491         0.144011         1.653800
 H         1.604576         1.861539        -0.898273
 H         1.625591         0.527478        -2.278359
 H         5.531905        -1.603259        -0.881358
 H         4.705713        -1.204983         0.714705
 H         3.162995        -1.195766        -1.959721
