19
Iteration:  3624
 C        -0.089292        -0.013946         0.311907
 C         1.325776         0.009081        -0.228597
 C         2.460024         0.704715         0.671501
 C         3.225049         0.331648        -0.806771
 C         1.862946         0.827871        -1.422472
 O         4.756512         0.317608        -0.762628
 C         4.638047        -1.194544        -0.334503
 C         3.157206        -1.100090        -0.860381
 O         1.919962        -1.469816        -0.369133
 H        -0.826026        -0.608936        -0.336566
 H        -0.098406        -0.395669         1.316646
 H        -0.421856         1.087035         0.319216
 H         2.327831         1.757983         0.586817
 H         2.676803         0.211646         1.627231
 H         1.446651         1.845772        -1.154671
 H         1.482066         0.564336        -2.413217
 H         5.454276        -1.676012        -0.886284
 H         4.667889        -1.346591         0.718317
 H         3.087571        -1.361285        -1.897850
