19
Iteration:   580
 C        -0.163264        -0.046971         0.216441
 C         1.350099         0.099844        -0.079705
 C         2.623340         0.536613         0.666864
 C         3.296900         0.331015        -0.687570
 C         1.926215         0.899795        -1.294653
 O         4.726739         0.373597        -0.738281
 C         4.526824        -1.164416        -0.444665
 C         3.091907        -1.146909        -0.996014
 O         1.864197        -1.440658        -0.399132
 H        -0.534689        -1.049584         0.616409
 H        -0.545577         0.863988         0.820785
 H        -0.572905         0.300169        -0.674797
 H         2.778396         1.548440         0.994467
 H         2.843752        -0.127931         1.507086
 H         1.750324         2.026823        -1.078004
 H         1.667404         0.563817        -2.310845
 H         5.161322        -1.833322        -1.017627
 H         4.705365        -1.499901         0.612287
 H         3.040078        -1.401282        -2.096388
