19
Iteration:   201
 C        -0.056553        -0.012817         0.418055
 C         1.373451         0.016796        -0.120016
 C         2.508550         0.421313         0.697373
 C         3.218943         0.376326        -0.740429
 C         2.033587         0.959572        -1.421482
 O         4.668002         0.323840        -0.766687
 C         4.587649        -1.123494        -0.335745
 C         3.131112        -1.149213        -1.015155
 O         1.792192        -1.391664        -0.511203
 H        -0.436853        -0.958497         0.790240
 H        -0.156817         0.847924         1.125606
 H        -0.720701         0.170076        -0.440364
 H         2.385511         1.485655         1.050323
 H         2.727346        -0.230162         1.617224
 H         1.870121         2.066416        -1.089374
 H         1.949558         0.717365        -2.490713
 H         5.315345        -1.740945        -0.850579
 H         4.541036        -1.288039         0.764006
 H         3.169747        -1.422334        -2.087420
