19
Iteration:  3066charge 0 multiplicity 1
 C        -0.134315         0.048759         0.228357
 C         1.366777        -0.025030        -0.129156
 C         2.473040         0.541238         0.740271
 C         3.227570         0.349813        -0.631749
 C         1.977240         0.846727        -1.357904
 O         4.683804         0.308328        -0.859519
 C         4.636533        -1.074400        -0.390206
 C         3.179603        -1.107826        -0.934597
 O         1.853664        -1.490097        -0.403859
 H        -0.373022        -0.069011         1.337621
 H        -0.531470         0.972546        -0.284559
 H        -0.643280        -0.760050        -0.297039
 H         2.193679         1.619207         1.053599
 H         2.808991         0.155780         1.727638
 H         1.738375         1.906602        -1.236821
 H         1.825672         0.611825        -2.453511
 H         5.409931        -1.730300        -0.835371
 H         4.625924        -1.077538         0.704801
 H         3.200478        -1.254859        -2.063202
