19
Iteration:   854charge 0 multiplicity 1
 C        -0.097797        -0.051667         0.311077
 C         1.419041        -0.006896        -0.162762
 C         2.551811         0.471857         0.759354
 C         3.329634         0.452143        -0.684543
 C         1.954771         0.894460        -1.373352
 O         4.736318         0.325414        -0.741190
 C         4.554440        -1.183623        -0.381079
 C         3.106227        -1.048598        -0.964588
 O         1.720412        -1.377116        -0.539347
 H        -0.152062        -0.163090         1.420878
 H        -0.345107         1.048219         0.189232
 H        -0.628371        -0.863650        -0.229047
 H         2.412918         1.411035         1.142698
 H         2.874511        -0.357005         1.336377
 H         1.604624         1.861307        -1.031942
 H         1.786991         0.463845        -2.398066
 H         5.209080        -1.792366        -0.946944
 H         4.546478        -1.378247         0.749938
 H         3.135367        -1.305534        -2.058425
