19
Iteration:  2817
 C        -0.068862         0.076195         0.221563
 C         1.382131        -0.120382        -0.218887
 C         2.579175         0.563200         0.746723
 C         3.160846         0.321560        -0.669497
 C         1.964434         0.857258        -1.304820
 O         4.639335         0.334721        -0.792536
 C         4.671986        -1.047570        -0.346567
 C         3.192603        -1.132221        -0.906101
 O         1.752611        -1.467555        -0.506056
 H        -0.090335         0.077217         1.339326
 H        -0.533633         1.046536        -0.048136
 H        -0.551777        -0.822473        -0.047349
 H         2.303550         1.621418         0.829102
 H         2.839525         0.110766         1.693861
 H         1.639092         1.901801        -1.062275
 H         1.696550         0.491660        -2.337885
 H         5.388302        -1.708514        -0.925009
 H         4.798468        -1.041883         0.760893
 H         3.218199        -1.349358        -1.959383
