19
Iteration:   858charge 0 multiplicity 1
 C        -0.097147        -0.017706         0.330071
 C         1.434325         0.008589        -0.131987
 C         2.571518         0.451432         0.775234
 C         3.304329         0.468543        -0.650628
 C         1.953063         0.868089        -1.416724
 O         4.708585         0.331401        -0.757788
 C         4.535868        -1.186102        -0.363233
 C         3.139174        -1.053196        -0.962386
 O         1.714712        -1.390499        -0.564274
 H        -0.159417        -0.111453         1.396721
 H        -0.438635         0.987521         0.126510
 H        -0.635890        -0.888812        -0.290835
 H         2.427198         1.458379         1.286829
 H         2.833727        -0.505257         1.290278
 H         1.677551         1.951794        -1.170603
 H         1.757145         0.516838        -2.425659
 H         5.331662        -1.720836        -0.990784
 H         4.689369        -1.445732         0.727777
 H         3.218328        -1.343189        -2.024896
