19
Iteration:   914charge 0 multiplicity 1
 C        -0.111007         0.029027         0.169215
 C         1.412148        -0.054715        -0.102186
 C         2.545502         0.398934         0.690693
 C         3.212133         0.427213        -0.625975
 C         1.980826         1.026302        -1.307371
 O         4.693752         0.282601        -0.755288
 C         4.584450        -1.143632        -0.485009
 C         3.097420        -1.062107        -0.934240
 O         1.830160        -1.482942        -0.399202
 H        -0.325486        -0.254880         1.227520
 H        -0.341222         1.097806         0.097553
 H        -0.860518        -0.438717        -0.546685
 H         2.437889         1.471269         1.056323
 H         3.002093        -0.107576         1.547034
 H         1.648013         2.037150        -1.061022
 H         1.767107         0.871998        -2.363484
 H         5.235127        -1.813279        -1.160118
 H         4.853816        -1.366810         0.544897
 H         3.112941        -1.325359        -1.988665
