19
Iteration:  1046charge 0 multiplicity 1
 C        -0.111459         0.030687         0.235691
 C         1.348004         0.007096        -0.194844
 C         2.503415         0.440680         0.814251
 C         3.236055         0.331153        -0.707991
 C         2.005182         0.968405        -1.299050
 O         4.755693         0.303837        -0.744492
 C         4.583282        -1.104785        -0.454428
 C         3.146044        -1.141160        -0.969404
 O         1.791970        -1.401208        -0.467690
 H        -0.055404        -0.415032         1.248025
 H        -0.624467         1.004542         0.493555
 H        -0.696108        -0.527458        -0.388346
 H         2.459646         1.534392         1.010156
 H         2.706216        -0.350909         1.553879
 H         1.837516         1.945092        -1.116222
 H         1.708800         0.902887        -2.322750
 H         5.354560        -1.689843        -0.948964
 H         4.518089        -1.458422         0.555486
 H         3.074395        -1.348251        -2.043262
