19
Iteration:  1805charge 0 multiplicity 1
 C        -0.089220         0.043939         0.302951
 C         1.394317         0.016092        -0.125032
 C         2.557219         0.405419         0.712962
 C         3.241380         0.389998        -0.725115
 C         1.875717         0.865922        -1.412449
 O         4.736977         0.306399        -0.807747
 C         4.572886        -1.089903        -0.238006
 C         3.155350        -1.098348        -0.988308
 O         1.807859        -1.380997        -0.506790
 H        -0.182670        -0.890496         0.824665
 H        -0.192405         0.727479         1.064519
 H        -0.897345         0.122467        -0.489191
 H         2.520095         1.365113         1.241929
 H         2.825350        -0.394944         1.389129
 H         1.746388         1.936794        -1.257994
 H         1.652077         0.631545        -2.467346
 H         5.290371        -1.786388        -0.658197
 H         4.559217        -1.300588         0.858383
 H         3.041281        -1.187910        -2.064361
