19
Iteration:   695charge 0 multiplicity 1
 C        -0.103613        -0.118014         0.395873
 C         1.319861         0.028481        -0.180841
 C         2.479959         0.529299         0.682626
 C         3.260317         0.399101        -0.632053
 C         1.939067         1.009927        -1.375746
 O         4.744038         0.200168        -0.714149
 C         4.608587        -1.212193        -0.464298
 C         3.154055        -1.057489        -1.031192
 O         1.840352        -1.333407        -0.460809
 H        -0.180674        -0.298404         1.411612
 H        -0.720774         0.690741         0.256755
 H        -0.776621        -0.804365        -0.188934
 H         2.358985         1.651889         0.512159
 H         2.772648         0.114271         1.700411
 H         1.667081         2.061730        -1.181338
 H         1.895836         0.724329        -2.404550
 H         5.465606        -1.919733        -0.746684
 H         4.584333        -1.482923         0.544002
 H         3.256923        -1.131679        -2.097008
