19
Iteration:   265
 C        -0.083708        -0.010015         0.162144
 C         1.385812         0.049463        -0.177460
 C         2.595891         0.474845         0.736410
 C         3.254375         0.318719        -0.586629
 C         1.956337         0.905564        -1.283604
 O         4.709461         0.311128        -0.697509
 C         4.636461        -1.185335        -0.563760
 C         3.076253        -1.066189        -0.998104
 O         1.720176        -1.368991        -0.363926
 H        -0.174186        -0.268550         1.235384
 H        -0.722963         0.848076         0.022949
 H        -0.436610        -0.915789        -0.305204
 H         2.639169         1.534960         1.074752
 H         2.657762        -0.085108         1.699631
 H         1.745474         1.986475        -1.179296
 H         1.908020         0.690847        -2.311376
 H         5.333810        -1.540657        -1.332741
 H         4.893695        -1.562120         0.436054
 H         2.991080        -1.181761        -2.080082
