19
Iteration:  3890charge 0 multiplicity 1
 C        -0.130159        -0.081881         0.272017
 C         1.360980         0.069779        -0.228015
 C         2.529586         0.572356         0.630183
 C         3.230285         0.329363        -0.798199
 C         1.881346         0.857727        -1.452006
 O         4.756433         0.340658        -0.780066
 C         4.608953        -1.087180        -0.292109
 C         3.102723        -1.137477        -0.861793
 O         1.861542        -1.419966        -0.280794
 H        -0.442104        -1.042484        -0.148282
 H        -0.005661        -0.049216         1.414374
 H        -0.602463         0.768199        -0.249774
 H         2.531029         1.652555         0.863815
 H         2.798497        -0.105729         1.502267
 H         1.659998         1.960514        -1.344628
 H         1.609308         0.683125        -2.462677
 H         5.300815        -1.617738        -0.937796
 H         4.657206        -1.384860         0.749430
 H         3.171581        -1.442184        -1.910328
