19
Iteration:   130charge 0 multiplicity 1
 C        -0.168278         0.035690         0.146939
 C         1.355561         0.028809        -0.169560
 C         2.568871         0.557089         0.810563
 C         3.233464         0.344289        -0.601421
 C         2.037872         0.859509        -1.298221
 O         4.664862         0.295574        -0.835013
 C         4.579484        -1.098065        -0.541321
 C         3.070109        -1.108908        -0.993440
 O         1.876110        -1.479597        -0.287216
 H        -0.422570        -0.830440         0.684287
 H        -0.419592         0.956854         0.704363
 H        -0.790118        -0.163735        -0.757274
 H         2.888892         1.564198         1.124283
 H         2.812041        -0.103750         1.642752
 H         1.680849         1.808060        -0.948195
 H         1.964376         0.818694        -2.360843
 H         5.327201        -1.658451        -1.101071
 H         4.774776        -1.198310         0.549827
 H         2.972062        -1.249443        -2.082118
