19
Iteration:   193
 C        -0.096341        -0.023966         0.393892
 C         1.306825         0.036561        -0.117714
 C         2.535225         0.422956         0.633926
 C         3.249222         0.297218        -0.707453
 C         2.070969         0.927525        -1.360081
 O         4.671083         0.370258        -0.744800
 C         4.569782        -1.195806        -0.362075
 C         3.138071        -1.048507        -1.003770
 O         1.780422        -1.381123        -0.506462
 H        -0.217196        -1.042422         0.795001
 H        -0.332716         0.676168         1.334226
 H        -0.874728         0.235022        -0.458599
 H         2.623059         1.551479         0.785716
 H         2.979780         0.009825         1.591633
 H         1.767588         2.078800        -1.407159
 H         1.837120         0.577262        -2.409711
 H         5.278162        -1.823672        -0.897765
 H         4.739085        -1.286335         0.762209
 H         3.255980        -1.368875        -2.059254
