19
Iteration:  4010
 C        -0.105931        -0.047554         0.092827
 C         1.362626         0.010550        -0.085368
 C         2.488318         0.751990         0.739400
 C         3.207016         0.365432        -0.627567
 C         1.936902         0.737801        -1.302020
 O         4.654762         0.292179        -0.939216
 C         4.676028        -1.126217        -0.479885
 C         3.159328        -1.174243        -0.758666
 O         1.854477        -1.396686        -0.290411
 H        -0.435938         0.072245        -0.919907
 H        -0.362172        -1.135043         0.337582
 H        -0.493494         0.859242         0.628818
 H         2.111127         1.764427         0.678397
 H         2.766005         0.340761         1.752516
 H         1.588831         1.844123        -1.387009
 H         1.681347         0.389810        -2.273065
 H         5.513317        -1.578832        -1.115747
 H         4.949522        -1.310189         0.642562
 H         3.410593        -1.365660        -1.866675
