19
Iteration:  1952charge 0 multiplicity 1
 C        -0.088573         0.004122         0.265977
 C         1.368469        -0.034197        -0.134718
 C         2.542569         0.563574         0.692290
 C         3.258087         0.410723        -0.702146
 C         1.896964         0.903594        -1.354116
 O         4.730017         0.303789        -0.731752
 C         4.615514        -1.177313        -0.383937
 C         3.144834        -1.127812        -0.920440
 O         1.765162        -1.414754        -0.499668
 H        -0.176036        -0.700839         1.090960
 H        -0.176097         1.090593         0.590173
 H        -0.818967        -0.208324        -0.474648
 H         2.252760         1.592936         1.023379
 H         2.947040        -0.015382         1.610899
 H         1.679211         1.986112        -1.262129
 H         1.686324         0.558833        -2.330984
 H         5.375024        -1.725644        -0.988258
 H         4.700690        -1.497642         0.659228
 H         3.320594        -1.394349        -2.032645
