19
Iteration:   227charge 0 multiplicity 1
 C        -0.003064         0.103469         0.259616
 C         1.359888        -0.034808        -0.235640
 C         2.547250         0.371592         0.693992
 C         3.215108         0.405819        -0.661921
 C         1.907709         0.944459        -1.222974
 O         4.695322         0.313372        -0.863439
 C         4.577242        -1.144330        -0.301933
 C         3.146020        -1.069781        -0.958952
 O         1.800760        -1.475858        -0.492032
 H        -0.139151        -0.611617         1.106179
 H        -0.078874         1.192622         0.598970
 H        -0.859679        -0.128700        -0.491165
 H         2.428319         1.451355         0.931968
 H         2.893673        -0.225054         1.533154
 H         1.599157         1.925266        -0.779145
 H         1.731478         0.775562        -2.319161
 H         5.236043        -1.880731        -0.787289
 H         4.585972        -1.174114         0.808568
 H         3.232827        -1.222392        -2.049189
