19
Iteration:  1646
 C        -0.066740        -0.002135         0.349741
 C         1.376067        -0.012828        -0.195798
 C         2.520460         0.462357         0.730055
 C         3.268286         0.390352        -0.661389
 C         1.972167         0.870131        -1.296369
 O         4.698498         0.349066        -0.754119
 C         4.620371        -1.133622        -0.374225
 C         3.103618        -1.147524        -1.008509
 O         1.778040        -1.364783        -0.565480
 H        -0.270939        -0.613477         1.307996
 H        -0.233778         1.040497         0.459012
 H        -0.831892        -0.265934        -0.389682
 H         2.256511         1.516331         0.970259
 H         2.922209        -0.029034         1.609602
 H         1.795540         1.986854        -1.151765
 H         1.647265         0.553736        -2.342716
 H         5.445820        -1.799560        -0.757683
 H         4.443292        -1.364701         0.667470
 H         3.240738        -1.468540        -2.047235
