19
Iteration:  3878charge 0 multiplicity 1
 C        -0.098161        -0.034336         0.174103
 C         1.373448        -0.056427        -0.043948
 C         2.547883         0.660302         0.613850
 C         3.226972         0.364715        -0.736140
 C         1.935685         0.877506        -1.425142
 O         4.672386         0.338118        -0.764060
 C         4.629617        -1.113192        -0.404631
 C         3.170909        -1.190431        -0.881924
 O         1.827388        -1.397614        -0.313867
 H        -0.548063        -1.008966        -0.115618
 H        -0.525656         0.026007         1.211832
 H        -0.745759         0.694116        -0.276520
 H         2.343052         1.710703         0.804423
 H         2.947458         0.183094         1.542075
 H         1.680509         1.938158        -1.265947
 H         1.692262         0.363080        -2.327387
 H         5.334689        -1.820386        -0.918457
 H         4.842838        -1.112000         0.655881
 H         3.118462        -1.692747        -1.873885
