19
Iteration:  3057
 C        -0.170962         0.038143         0.134732
 C         1.323249        -0.066533        -0.154338
 C         2.473816         0.467616         0.743090
 C         3.243369         0.371367        -0.623912
 C         1.925258         0.866503        -1.339240
 O         4.836819         0.374762        -0.852676
 C         4.647383        -1.079705        -0.457248
 C         3.136210        -1.101596        -0.912121
 O         1.812905        -1.432808        -0.311684
 H        -0.147546         0.057845         1.244836
 H        -0.778258         0.991967        -0.191574
 H        -0.597481        -0.900093        -0.226154
 H         2.369752         1.639005         0.897547
 H         2.844783        -0.071566         1.639932
 H         1.717681         1.930946        -1.168384
 H         1.816944         0.241952        -2.303079
 H         5.217505        -1.854942        -0.919516
 H         4.699538        -1.196377         0.662710
 H         3.095558        -1.433633        -1.957515
