19
Iteration:  3058charge 0 multiplicity 1
 C        -0.170368         0.042310         0.145756
 C         1.328009        -0.064517        -0.150734
 C         2.470983         0.471939         0.743717
 C         3.242296         0.367825        -0.621591
 C         1.927257         0.868733        -1.344880
 O         4.825285         0.370238        -0.854904
 C         4.649114        -1.076942        -0.453227
 C         3.140003        -1.103266        -0.917485
 O         1.816081        -1.440024        -0.320295
 H        -0.146818         0.046002         1.229787
 H        -0.768144         0.993764        -0.200885
 H        -0.593833        -0.894632        -0.241690
 H         2.356660         1.621808         0.915988
 H         2.849277        -0.019592         1.654688
 H         1.736266         1.934036        -1.153170
 H         1.830398         0.240829        -2.309566
 H         5.215628        -1.857271        -0.900085
 H         4.676213        -1.184168         0.676830
 H         3.108597        -1.411884        -1.947267
