19
Iteration:   340
 C        -0.048162         0.035219         0.254189
 C         1.422851         0.031990        -0.143365
 C         2.589346         0.396409         0.724969
 C         3.201962         0.323695        -0.660275
 C         1.921425         1.010062        -1.344190
 O         4.631104         0.274867        -0.764979
 C         4.685567        -1.100748        -0.360965
 C         3.101771        -1.146684        -0.952537
 O         1.742611        -1.380536        -0.511927
 H        -0.411862        -0.803605         0.961751
 H        -0.350426         1.065839         0.551400
 H        -0.618247        -0.281644        -0.619471
 H         2.668802         1.462059         1.046798
 H         2.998044        -0.362485         1.449895
 H         1.635914         2.006087        -0.912964
 H         1.682832         0.666478        -2.393381
 H         5.478828        -1.709087        -0.875460
 H         4.809128        -1.065925         0.738481
 H         3.194283        -1.461910        -1.993463
