19
Iteration:  1251charge 0 multiplicity 1
 C        -0.152321         0.100558         0.151733
 C         1.422759        -0.033699        -0.143621
 C         2.525173         0.509415         0.765689
 C         3.216633         0.325755        -0.599926
 C         1.953996         0.873323        -1.293127
 O         4.761449         0.311891        -0.746611
 C         4.635775        -1.160130        -0.519023
 C         3.092326        -1.096844        -0.956853
 O         1.791957        -1.383578        -0.410684
 H        -0.276153        -0.246257         1.206281
 H        -0.591208         1.036014         0.029402
 H        -0.491165        -0.768538        -0.398063
 H         2.353246         1.515843         1.065647
 H         2.646494        -0.102172         1.629212
 H         1.686068         1.935395        -0.955285
 H         1.828606         0.352308        -2.290731
 H         5.271574        -1.595426        -1.327664
 H         5.043398        -1.519434         0.451457
 H         2.914031        -1.255195        -2.009339
