19
Iteration:  1415charge 0 multiplicity 1
 C        -0.108050         0.091329         0.184935
 C         1.325592         0.074327        -0.123093
 C         2.517890         0.404820         0.792128
 C         3.196336         0.351990        -0.607795
 C         1.933680         0.856861        -1.269351
 O         4.657499         0.292097        -0.890120
 C         4.649077        -1.091543        -0.454876
 C         3.156881        -1.194158        -0.917303
 O         1.870500        -1.383362        -0.415058
 H        -0.592192        -0.865498         0.701243
 H        -0.394885         0.988174         0.713555
 H        -0.578934         0.084931        -0.936851
 H         2.641288         1.425778         1.117948
 H         2.754431        -0.202260         1.642075
 H         1.809312         1.965797        -1.049319
 H         1.751758         0.546662        -2.389844
 H         5.379363        -1.634877        -1.075066
 H         5.005132        -1.118647         0.614507
 H         3.286208        -1.231803        -1.970453
