19
Iteration:  1565charge 0 multiplicity 1
 C        -0.142521        -0.003566         0.103692
 C         1.347190         0.023204        -0.071231
 C         2.548421         0.488558         0.742195
 C         3.221036         0.341844        -0.653954
 C         1.941282         0.967513        -1.208273
 O         4.652656         0.301979        -0.892886
 C         4.708166        -1.190156        -0.406963
 C         3.170110        -1.100160        -0.905659
 O         1.822011        -1.423223        -0.431494
 H        -0.618674        -0.833959         0.672928
 H        -0.376082         0.751822         0.979736
 H        -0.787347         0.235856        -0.818717
 H         2.452694         1.624681         0.804819
 H         2.865183        -0.067626         1.670768
 H         1.722979         1.936603        -0.858220
 H         1.687443         0.816328        -2.192930
 H         5.201246        -1.766262        -1.140565
 H         5.001056        -1.381974         0.628880
 H         3.302499        -1.281871        -2.016425
