19
Iteration:   341
 C        -0.052641         0.030275         0.264156
 C         1.422099         0.035292        -0.146309
 C         2.591607         0.393086         0.714529
 C         3.203676         0.323063        -0.662637
 C         1.921680         1.008773        -1.344941
 O         4.635403         0.276267        -0.767008
 C         4.690851        -1.099067        -0.360737
 C         3.099739        -1.152010        -0.950016
 O         1.738697        -1.381491        -0.512262
 H        -0.420735        -0.791828         0.941161
 H        -0.361741         1.082252         0.557039
 H        -0.639020        -0.243512        -0.625001
 H         2.641502         1.488556         1.039744
 H         2.985401        -0.401633         1.444133
 H         1.656182         2.001860        -0.871597
 H         1.722320         0.661787        -2.357154
 H         5.494081        -1.685631        -0.846893
 H         4.781015        -1.037059         0.750249
 H         3.195384        -1.440550        -1.995525
