19
Iteration:  1034charge 0 multiplicity 1
 C        -0.051872         0.080000         0.280426
 C         1.358378        -0.035856        -0.156023
 C         2.475270         0.428191         0.662190
 C         3.240938         0.368446        -0.687281
 C         1.911727         0.975381        -1.279156
 O         4.740277         0.288593        -0.741870
 C         4.648047        -1.145879        -0.385774
 C         3.121869        -1.109587        -0.926772
 O         1.775581        -1.418661        -0.539967
 H        -0.207585        -0.602674         1.112695
 H        -0.250555         1.130037         0.472906
 H        -0.748525        -0.223139        -0.479090
 H         2.322947         1.377341         1.170491
 H         2.832496        -0.180262         1.449468
 H         1.694498         1.882106        -0.877885
 H         1.736372         0.775449        -2.303028
 H         5.265863        -1.735397        -1.067011
 H         4.929529        -1.181019         0.646675
 H         3.286517        -1.467467        -1.971622
