19
Iteration:  3408
 C        -0.007564        -0.049852         0.289762
 C         1.345303         0.000066        -0.188074
 C         2.502277         0.674440         0.567007
 C         3.229570         0.346058        -0.713618
 C         1.893963         0.774433        -1.394359
 O         4.744918         0.364867        -0.781980
 C         4.621607        -1.048650        -0.280720
 C         3.065977        -1.202414        -0.912474
 O         1.790424        -1.437400        -0.382775
 H        -0.549322        -0.765205        -0.337231
 H        -0.076841        -0.426828         1.259946
 H        -0.413880         0.970800         0.311451
 H         2.494423         1.748906         0.685299
 H         2.785823         0.119551         1.502904
 H         1.654748         1.852437        -1.263079
 H         1.811334         0.489254        -2.381654
 H         5.537646        -1.580299        -0.656513
 H         4.773709        -1.105953         0.798448
 H         3.168863        -1.647163        -1.955177
