19
Iteration:   502
 C        -0.039958         0.085167         0.253858
 C         1.385202        -0.034129        -0.088328
 C         2.546463         0.370102         0.647313
 C         3.241752         0.378764        -0.772524
 C         1.909772         0.981471        -1.301829
 O         4.734899         0.336540        -0.721610
 C         4.618643        -1.150392        -0.383333
 C         3.109891        -1.099422        -0.917280
 O         1.744606        -1.423184        -0.495187
 H        -0.204685        -0.333346         1.308247
 H        -0.416716         1.103236         0.083695
 H        -0.529451        -0.760370        -0.130273
 H         2.414537         1.399393         0.955587
 H         2.844879        -0.367906         1.373787
 H         1.893872         2.061304        -0.933652
 H         1.583859         0.856922        -2.366325
 H         5.274198        -1.743963        -1.070382
 H         4.683775        -1.301387         0.709548
 H         3.091086        -1.481016        -1.978097
