19
Iteration:  1055charge 0 multiplicity 1
 C        -0.135058        -0.044780         0.251186
 C         1.304988         0.065097        -0.202434
 C         2.562643         0.447040         0.798096
 C         3.278601         0.337473        -0.612294
 C         2.052454         0.967192        -1.323446
 O         4.687198         0.317523        -0.746268
 C         4.565159        -1.177763        -0.454155
 C         3.120926        -1.098950        -1.095766
 O         1.803352        -1.377520        -0.397351
 H        -0.150845        -0.475644         1.246461
 H        -0.517811         0.919497         0.106433
 H        -0.694420        -0.662373        -0.442376
 H         2.621392         1.461316         1.172443
 H         2.650432        -0.145628         1.649647
 H         1.939453         2.008331        -1.129883
 H         1.837008         0.683758        -2.351516
 H         5.345064        -1.741138        -0.969559
 H         4.578689        -1.252018         0.618543
 H         3.113845        -1.354225        -2.195802
