19
Iteration:  2279
 C        -0.085950         0.026769         0.255569
 C         1.387925         0.007568        -0.154093
 C         2.526394         0.454337         0.667500
 C         3.233267         0.373217        -0.666153
 C         1.975589         0.962418        -1.380784
 O         4.670379         0.268596        -0.799448
 C         4.614280        -1.118311        -0.316898
 C         3.112755        -1.098705        -0.918525
 O         1.829273        -1.434961        -0.466152
 H        -0.229894        -0.372940         1.215660
 H        -0.385903         1.139480         0.389676
 H        -0.701338        -0.556455        -0.486946
 H         2.402104         1.456170         1.008636
 H         2.661407        -0.226859         1.472458
 H         1.551588         1.910637        -1.003681
 H         1.875421         0.824411        -2.470891
 H         5.284308        -1.773103        -0.829501
 H         4.620481        -1.222317         0.792019
 H         3.326807        -1.383160        -1.941410
