19
Iteration:   428charge 0 multiplicity 1
 C        -0.132446        -0.044297         0.192018
 C         1.325778         0.100676        -0.145355
 C         2.522279         0.516032         0.689864
 C         3.227156         0.348939        -0.661102
 C         1.972593         0.952946        -1.297155
 O         4.684456         0.218657        -0.665507
 C         4.635711        -1.222638        -0.554409
 C         3.138989        -1.080733        -1.015703
 O         1.846642        -1.359255        -0.325871
 H        -0.300558        -0.892487         0.973688
 H        -0.579153         0.914197         0.690322
 H        -0.612329        -0.447681        -0.737355
 H         2.502709         1.628390         1.003909
 H         2.980988        -0.053810         1.551866
 H         1.853626         2.152088        -1.221969
 H         1.479183         0.827917        -2.290285
 H         5.340219        -1.723470        -1.239253
 H         5.006431        -1.463361         0.503374
 H         3.118883        -1.121555        -2.122971
