19
Iteration:  4052
 C        -0.042223        -0.019402         0.223529
 C         1.393712        -0.045185        -0.169610
 C         2.520390         0.572673         0.586805
 C         3.257573         0.367839        -0.754775
 C         1.949976         0.842069        -1.467106
 O         4.623571         0.359193        -0.754815
 C         4.560770        -1.050445        -0.343951
 C         3.117781        -1.132292        -0.912631
 O         1.893073        -1.455339        -0.234329
 H        -0.680869        -0.601896        -0.394161
 H        -0.255955        -0.403348         1.235291
 H        -0.562177         0.906656         0.411234
 H         2.387392         1.584928         0.885943
 H         2.967163        -0.067719         1.379522
 H         1.671496         1.959984        -1.337440
 H         1.674036         0.752380        -2.517938
 H         5.330562        -1.758993        -0.844766
 H         4.670898        -1.169048         0.779358
 H         3.007569        -1.663307        -1.974274
