19
Iteration:  4451charge 0 multiplicity 1
 C        -0.065772         0.031221         0.276244
 C         1.360925         0.020637        -0.232161
 C         2.529074         0.549327         0.692710
 C         3.254700         0.311519        -0.736471
 C         1.929753         0.757162        -1.486084
 O         4.679275         0.405705        -0.851552
 C         4.647524        -1.099344        -0.269733
 C         3.151872        -1.192289        -0.838413
 O         1.775988        -1.359277        -0.353236
 H        -0.739244        -0.067831        -0.587962
 H        -0.223122        -0.858242         0.920303
 H        -0.226299         0.876759         0.937306
 H         2.227012         1.567698         0.979320
 H         2.715742        -0.127464         1.607875
 H         1.489523         1.752549        -1.236432
 H         1.821224         0.493651        -2.542362
 H         5.371260        -1.733532        -0.870989
 H         4.922266        -1.011993         0.786062
 H         3.229135        -1.743975        -1.852861
