19
Iteration:  4324
 C        -0.136634         0.049963         0.085573
 C         1.339368        -0.033244        -0.059464
 C         2.569393         0.661442         0.686108
 C         3.259273         0.311055        -0.601450
 C         1.823913         0.756493        -1.366133
 O         4.666876         0.354103        -0.849523
 C         4.699429        -1.129836        -0.452327
 C         3.149317        -1.130513        -0.839287
 O         1.880727        -1.446181        -0.302861
 H        -0.682240        -0.801120        -0.329991
 H        -0.391209         0.134222         1.175143
 H        -0.540631         0.919173        -0.469575
 H         2.360395         1.685453         0.822027
 H         2.831297         0.295425         1.674756
 H         1.791330         1.824275        -1.349206
 H         1.533978         0.281520        -2.334135
 H         5.291759        -1.708952        -1.157765
 H         5.052378        -1.221081         0.581419
 H         3.114152        -1.339240        -1.863429
