19
Iteration:  3811charge 0 multiplicity 1
 C        -0.148087        -0.017640         0.175227
 C         1.355836         0.014492        -0.159691
 C         2.561963         0.639020         0.640603
 C         3.220025         0.339552        -0.700464
 C         2.001773         0.841839        -1.403082
 O         4.637690         0.346072        -0.849512
 C         4.624809        -1.062587        -0.397535
 C         3.144961        -1.214035        -0.845263
 O         1.818104        -1.455812        -0.232455
 H        -0.668584        -0.595396        -0.676279
 H        -0.364960        -0.478746         1.138404
 H        -0.416357         0.968768         0.411495
 H         2.498068         1.720286         0.712169
 H         3.005917         0.176778         1.502716
 H         1.733873         1.845456        -1.175130
 H         1.887189         0.513004        -2.471946
 H         5.446226        -1.683358        -0.904091
 H         4.769122        -1.141878         0.664831
 H         3.246186        -1.633622        -1.864015
