19
Iteration:  4406charge 0 multiplicity 1
 C        -0.047143         0.001454         0.333427
 C         1.422634        -0.122993        -0.146295
 C         2.510400         0.741988         0.541826
 C         3.290467         0.404244        -0.789494
 C         1.898616         0.823569        -1.372661
 O         4.675959         0.354296        -0.766482
 C         4.539084        -1.153676        -0.218275
 C         3.159073        -1.173042        -0.917827
 O         1.811329        -1.449908        -0.445822
 H        -0.765394        -0.041543        -0.534848
 H        -0.299897        -0.897604         0.967159
 H        -0.042649         0.802965         1.136499
 H         2.312463         1.872862         0.491226
 H         2.927551         0.488694         1.576891
 H         1.485994         1.903598        -1.480977
 H         1.735456         0.267510        -2.356175
 H         5.352455        -1.713409        -0.777280
 H         4.502524        -1.239580         0.865833
 H         3.287062        -1.748909        -1.922008
