19
Iteration:   235charge 0 multiplicity 1
 C        -0.115782         0.103655         0.296355
 C         1.384924        -0.064970        -0.083709
 C         2.565905         0.400509         0.707547
 C         3.254793         0.370568        -0.689325
 C         1.935328         0.904107        -1.264665
 O         4.685924         0.336757        -0.851212
 C         4.560834        -1.186213        -0.334296
 C         3.154471        -1.059385        -0.964368
 O         1.833445        -1.427362        -0.527050
 H        -0.397044        -0.361012         1.220727
 H        -0.540770         1.177002         0.360492
 H        -0.598404        -0.248153        -0.664933
 H         2.357145         1.505972         0.908852
 H         2.705930        -0.376725         1.513190
 H         1.764189         2.068360        -1.001791
 H         1.782188         0.790675        -2.371875
 H         5.268783        -1.765475        -0.901790
 H         4.753190        -1.314646         0.773355
 H         3.280249        -1.226074        -2.057791
