19
Iteration:   101
 C        -0.086010         0.067371         0.193918
 C         1.372886        -0.007672        -0.087177
 C         2.541539         0.409739         0.805827
 C         3.245484         0.361270        -0.736633
 C         1.916904         0.849909        -1.263069
 O         4.693942         0.365257        -0.868963
 C         4.722418        -1.121045        -0.432212
 C         3.127819        -1.155109        -0.826956
 O         1.706465        -1.361014        -0.480696
 H        -0.645668        -0.302824         1.145388
 H        -0.357553         1.053766         0.013561
 H        -0.441075        -0.481015        -0.626011
 H         2.605695         1.375359         1.273536
 H         2.932221        -0.280387         1.543000
 H         1.707673         1.869870        -0.964725
 H         1.537110         0.740476        -2.303436
 H         5.241238        -1.735668        -1.215687
 H         5.320208        -1.101896         0.426479
 H         3.165578        -1.632980        -1.802745
