19
Iteration:  3626charge 0 multiplicity 1
 C        -0.097781        -0.018336         0.301560
 C         1.291828         0.024749        -0.248015
 C         2.481559         0.702428         0.677228
 C         3.220045         0.331323        -0.793125
 C         1.859805         0.831104        -1.411078
 O         4.759975         0.305838        -0.761523
 C         4.650460        -1.193777        -0.342847
 C         3.159165        -1.102373        -0.862181
 O         1.915838        -1.460123        -0.349272
 H        -0.841322        -0.649465        -0.341291
 H        -0.074106        -0.369591         1.298499
 H        -0.499168         1.001092         0.277980
 H         2.331884         1.788324         0.638633
 H         2.728563         0.205096         1.616864
 H         1.437715         1.798695        -1.197775
 H         1.503335         0.589089        -2.434294
 H         5.478977        -1.714584        -0.974111
 H         4.751946        -1.296682         0.716796
 H         3.164346        -1.364441        -1.945517
