19
Iteration:  4482
 C        -0.169461         0.033267         0.097753
 C         1.372991         0.004259        -0.071726
 C         2.565979         0.639817         0.741392
 C         3.261345         0.348078        -0.686262
 C         1.888255         0.846862        -1.345641
 O         4.669603         0.322627        -0.852217
 C         4.651692        -1.156290        -0.378003
 C         3.125440        -1.167917        -0.955866
 O         1.912045        -1.462112        -0.261642
 H        -0.622127        -0.475878        -0.791002
 H        -0.532394        -0.460561         1.037576
 H        -0.622197         1.026581        -0.113865
 H         2.308103         1.713088         0.866478
 H         2.938046         0.284558         1.734686
 H         1.464358         1.908696        -1.228551
 H         1.727172         0.446884        -2.390520
 H         5.350292        -1.725930        -1.030183
 H         4.671727        -1.149490         0.668355
 H         3.230966        -1.493131        -2.003103
