19
Iteration:  2947
 C        -0.023369         0.004549         0.289916
 C         1.394560        -0.066350        -0.146311
 C         2.568102         0.534788         0.623338
 C         3.251751         0.268830        -0.747043
 C         1.963846         0.842471        -1.330576
 O         4.621955         0.385549        -0.781090
 C         4.593390        -0.978359        -0.219113
 C         3.180372        -1.208610        -1.019402
 O         1.722446        -1.432486        -0.467393
 H        -0.180199        -0.969025         0.809475
 H        -0.156064         0.923044         0.871562
 H        -0.785372         0.294557        -0.375137
 H         2.580206         1.668828         0.617109
 H         2.853436         0.295747         1.660416
 H         1.947830         1.926323        -1.214869
 H         1.681152         0.513492        -2.394703
 H         5.465501        -1.558980        -0.536144
 H         4.376705        -1.063192         0.852329
 H         3.127236        -1.628553        -1.989050
