19
Iteration:     1
 C        -0.074010        -0.007181         0.253914
 C         1.371715        -0.015281        -0.148494
 C         2.542711         0.510991         0.706588
 C         3.244596         0.363329        -0.672777
 C         1.952490         0.900344        -1.329228
 O         4.677364         0.303718        -0.780597
 C         4.589504        -1.129454        -0.437104
 C         3.113007        -1.101763        -0.953974
 O         1.829404        -1.393656        -0.407070
 H        -0.223115        -0.631191         1.140303
 H        -0.401829         1.009911         0.484798
 H        -0.701252        -0.402032        -0.550730
 H         2.440466         1.554532         1.010578
 H         2.854865        -0.120455         1.539570
 H         1.703579         1.947567        -1.148058
 H         1.750682         0.613585        -2.363230
 H         5.305583        -1.718483        -1.014017
 H         4.726322        -1.290892         0.636400
 H         3.125674        -1.351360        -2.020054
