19
Iteration:  1930charge 0 multiplicity 1
 C        -0.162570         0.060852         0.198751
 C         1.324740         0.030786        -0.153410
 C         2.524998         0.400392         0.740218
 C         3.212564         0.375097        -0.621689
 C         1.973954         0.874326        -1.292084
 O         4.764635         0.305105        -0.849756
 C         4.641373        -1.115585        -0.420022
 C         3.119171        -1.127524        -0.953508
 O         1.827429        -1.347950        -0.391514
 H        -0.209613        -0.463147         1.167596
 H        -0.673290         1.065401         0.064804
 H        -0.628778        -0.653806        -0.435925
 H         2.663624         1.426031         1.176933
 H         2.465238        -0.434660         1.514973
 H         1.748328         1.946253        -1.298835
 H         1.771888         0.458330        -2.241172
 H         5.468165        -1.689282        -0.893078
 H         4.762793        -1.192600         0.670400
 H         3.119179        -1.329057        -2.104576
