19
Iteration:  2787
 C        -0.119831         0.047339         0.399881
 C         1.322441        -0.018644        -0.253563
 C         2.551836         0.411330         0.652420
 C         3.201156         0.319160        -0.795759
 C         1.950673         0.923632        -1.459007
 O         4.693451         0.386721        -0.628556
 C         4.590980        -1.094934        -0.353666
 C         3.201020        -1.136981        -0.966922
 O         1.858295        -1.387904        -0.424325
 H         0.021911         0.170923         1.440669
 H        -0.887977         0.783710        -0.040427
 H        -0.575814        -0.912297         0.280093
 H         2.535544         1.473700         0.849508
 H         2.679400        -0.331704         1.369148
 H         1.580785         1.905369        -1.436591
 H         1.749624         0.554968        -2.466924
 H         5.293536        -1.734252        -0.834229
 H         4.677546        -1.283209         0.749425
 H         3.289789        -1.589757        -2.004526
