19
Iteration:  1314charge 0 multiplicity 1
 C        -0.029116        -0.006401         0.302017
 C         1.321029        -0.026759        -0.157207
 C         2.561685         0.499522         0.722618
 C         3.231013         0.378685        -0.654752
 C         1.947374         1.007357        -1.378258
 O         4.694864         0.295130        -0.810000
 C         4.613839        -1.176270        -0.319060
 C         3.120020        -1.137460        -0.943278
 O         1.796570        -1.364840        -0.520208
 H        -0.071663        -0.475092         1.293285
 H        -0.612817         0.887432         0.070533
 H        -0.689944        -0.799195        -0.293117
 H         2.480081         1.573359         1.121013
 H         2.805496        -0.197969         1.605372
 H         1.694309         2.060468        -0.984703
 H         1.748232         0.726399        -2.459570
 H         5.251043        -1.863177        -0.936874
 H         4.625462        -1.442865         0.746098
 H         3.286375        -1.390048        -2.008884
