19
Iteration:   273charge 0 multiplicity 1
 C        -0.051826        -0.009446         0.187314
 C         1.341696         0.035055        -0.157545
 C         2.502242         0.503492         0.692627
 C         3.314893         0.348157        -0.588242
 C         1.993951         0.963877        -1.307389
 O         4.686417         0.321566        -0.678994
 C         4.597470        -1.246113        -0.605432
 C         3.080816        -1.073557        -0.933248
 O         1.789258        -1.370628        -0.354923
 H        -0.245960        -0.347435         1.276393
 H        -0.626824         0.789510        -0.163375
 H        -0.356249        -0.929951        -0.339357
 H         2.447513         1.519985         0.982579
 H         2.716737        -0.166170         1.523210
 H         1.768403         1.862599        -0.911347
 H         1.830553         0.730452        -2.370480
 H         5.133226        -1.716007        -1.501236
 H         4.953303        -1.548048         0.343308
 H         2.986351        -1.238320        -2.005570
