19
Iteration:  3104
 C        -0.067279        -0.044781         0.386031
 C         1.344330        -0.008340        -0.194504
 C         2.538515         0.483021         0.598781
 C         3.286229         0.380886        -0.791830
 C         1.872227         0.841502        -1.498375
 O         4.813814         0.345312        -0.717260
 C         4.592835        -1.020551        -0.269302
 C         3.145211        -1.137661        -0.944919
 O         1.728446        -1.406415        -0.418259
 H        -0.140485        -0.757215         1.199240
 H        -0.400039         0.908428         0.828778
 H        -0.713062        -0.276509        -0.516101
 H         2.289079         1.499903         0.900574
 H         2.757702        -0.198071         1.430934
 H         1.754376         1.909490        -1.213386
 H         1.632442         0.459521        -2.504185
 H         5.501794        -1.605639        -0.527211
 H         4.458187        -1.033296         0.830328
 H         3.210575        -1.432474        -1.955825
