19
Iteration:  2531charge 0 multiplicity 1
 C        -0.231889         0.045563         0.141317
 C         1.302296         0.079902        -0.173215
 C         2.513588         0.501312         0.681014
 C         3.280497         0.382976        -0.655409
 C         1.903597         0.924328        -1.340025
 O         4.686949         0.312890        -0.840622
 C         4.715039        -1.171916        -0.416022
 C         3.150341        -1.126410        -0.840193
 O         1.920819        -1.476658        -0.311363
 H        -0.380356         0.110314         1.223062
 H        -0.652356         0.976687        -0.296177
 H        -0.834135        -0.871745        -0.214774
 H         2.505583         1.472881         1.106776
 H         2.773579        -0.067847         1.575846
 H         1.836260         2.050408        -1.367049
 H         1.422281         0.492617        -2.290821
 H         5.488945        -1.759254        -0.993021
 H         4.915893        -1.513132         0.645594
 H         3.171650        -1.475426        -1.984565
