19
Iteration:  4793charge 0 multiplicity 1
 C        -0.133982        -0.065253         0.181970
 C         1.353349         0.001207        -0.203321
 C         2.554001         0.613374         0.655155
 C         3.277403         0.275587        -0.614279
 C         1.970798         0.894307        -1.399519
 O         4.691809         0.394171        -0.819305
 C         4.574888        -1.136175        -0.415739
 C         3.161111        -1.159311        -0.837802
 O         1.775165        -1.423430        -0.301539
 H        -0.582427        -0.939141        -0.252250
 H        -0.120197        -0.145772         1.293525
 H        -0.727327         0.854370        -0.189168
 H         2.456082         1.824102         0.648882
 H         2.652070         0.121803         1.683180
 H         1.903436         2.003383        -1.275006
 H         1.865769         0.480684        -2.422069
 H         5.437884        -1.663690        -0.922789
 H         4.898899        -1.271094         0.640097
 H         3.219259        -1.457812        -1.924414
