19
Iteration:  2662
 C        -0.136682         0.045914         0.287408
 C         1.324273         0.018424        -0.152480
 C         2.376037         0.626030         0.671288
 C         3.314413         0.394269        -0.741759
 C         1.937627         0.768042        -1.401582
 O         4.729828         0.307133        -0.792075
 C         4.644537        -1.101361        -0.367290
 C         3.184072        -1.178632        -0.904657
 O         1.894475        -1.485683        -0.381992
 H        -0.601158        -0.879614         0.736238
 H        -0.252664         0.860755         0.964653
 H        -0.772572         0.475953        -0.562504
 H         2.216693         1.659773         0.918557
 H         2.617245         0.001728         1.552718
 H         1.656463         1.897460        -1.228585
 H         1.655945         0.509217        -2.462793
 H         5.433864        -1.840570        -0.833616
 H         4.704305        -0.978444         0.745196
 H         3.197979        -1.304579        -1.996571
