19
Iteration:   673charge 0 multiplicity 1
 C        -0.016854        -0.091075         0.301705
 C         1.373178        -0.013779        -0.190074
 C         2.562992         0.565379         0.714127
 C         3.205105         0.464431        -0.737598
 C         2.029285         0.959059        -1.382078
 O         4.767059         0.314135        -0.665745
 C         4.425765        -1.207408        -0.402363
 C         3.062819        -1.070729        -1.027784
 O         1.816131        -1.418876        -0.416182
 H         0.093510        -0.168761         1.327529
 H        -0.641742         0.701366         0.142861
 H        -0.671401        -0.914950        -0.083601
 H         2.323624         1.546124         1.249557
 H         2.966982        -0.275615         1.343060
 H         1.715038         1.956021        -1.102890
 H         1.729761         0.655508        -2.365387
 H         5.091724        -1.706217        -1.159004
 H         4.750645        -1.654910         0.456809
 H         3.174244        -1.304020        -2.067936
