19
Iteration:  2399charge 0 multiplicity 1
 C        -0.163426         0.022735         0.075838
 C         1.367761        -0.015658        -0.155487
 C         2.530124         0.474810         0.725340
 C         3.267162         0.343843        -0.715540
 C         1.918672         0.868179        -1.323262
 O         4.803941         0.281636        -0.815699
 C         4.654184        -1.090823        -0.448185
 C         3.130230        -1.130078        -0.899536
 O         1.766950        -1.353396        -0.234129
 H        -0.215795        -0.756466         0.750973
 H        -0.269607         0.892579         0.828334
 H        -0.798454        -0.052401        -0.849488
 H         2.186955         1.403850         1.052085
 H         2.728805        -0.164047         1.502940
 H         1.711037         1.918687        -1.141120
 H         1.499280         0.633402        -2.356123
 H         5.308654        -1.719677        -0.953710
 H         4.728794        -1.031940         0.654487
 H         3.104161        -1.229658        -2.057114
