19
Iteration:  1798
 C        -0.058818         0.022806         0.295384
 C         1.355833         0.048536        -0.139154
 C         2.544418         0.388846         0.725686
 C         3.227598         0.419184        -0.722693
 C         1.875142         0.817318        -1.380771
 O         4.765333         0.292103        -0.812053
 C         4.561118        -1.098651        -0.292745
 C         3.167051        -1.094082        -0.965601
 O         1.761054        -1.344880        -0.493432
 H        -0.341349        -0.987026         0.832134
 H        -0.211037         0.811924         1.072768
 H        -0.620098         0.193572        -0.612873
 H         2.631207         1.375731         1.267929
 H         2.828493        -0.433278         1.425984
 H         1.570408         1.832772        -1.187308
 H         1.796134         0.499470        -2.406098
 H         5.422646        -1.663844        -0.722301
 H         4.492630        -1.111542         0.776513
 H         3.506882        -1.293570        -2.066711
