19
Iteration:   986
 C        -0.064664         0.005101         0.291988
 C         1.396117         0.008914        -0.206014
 C         2.515400         0.427719         0.721891
 C         3.287109         0.339646        -0.708882
 C         1.946215         0.980653        -1.332919
 O         4.718698         0.349670        -0.758360
 C         4.568147        -1.184351        -0.378108
 C         3.069521        -1.083031        -0.999702
 O         1.831563        -1.426465        -0.419444
 H        -0.377660        -1.000493         0.557863
 H        -0.247946         0.776736         1.040467
 H        -0.840966         0.353564        -0.510510
 H         2.507154         1.434542         1.079976
 H         2.660252        -0.165788         1.646335
 H         1.815938         2.131663        -1.123460
 H         1.765637         0.538994        -2.348528
 H         5.289683        -1.648328        -1.037731
 H         4.503292        -1.403762         0.721575
 H         3.079364        -1.300778        -2.101500
