19
Iteration:   425charge 0 multiplicity 1
 C        -0.153259        -0.043628         0.209479
 C         1.346310         0.086305        -0.116596
 C         2.514303         0.534407         0.683486
 C         3.248769         0.346689        -0.644577
 C         1.948927         0.975432        -1.310036
 O         4.692986         0.232581        -0.662114
 C         4.624692        -1.224168        -0.535359
 C         3.125675        -1.097432        -1.030130
 O         1.861339        -1.359690        -0.344691
 H        -0.356389        -0.888810         0.981039
 H        -0.595829         0.819693         0.688014
 H        -0.582130        -0.295856        -0.761351
 H         2.547765         1.549773         0.994852
 H         2.959272        -0.027605         1.474651
 H         1.908934         2.082633        -1.312877
 H         1.480317         0.791799        -2.332287
 H         5.364435        -1.689944        -1.249362
 H         4.981062        -1.539546         0.451105
 H         3.126697        -1.275619        -2.150861
