19
Iteration:  4019
 C        -0.171742        -0.055079         0.082040
 C         1.372473         0.040516        -0.066537
 C         2.450266         0.680803         0.715911
 C         3.301456         0.413934        -0.608658
 C         1.858803         0.721951        -1.367631
 O         4.691790         0.274041        -0.925880
 C         4.712766        -1.130176        -0.437514
 C         3.183370        -1.099665        -0.827520
 O         1.858260        -1.376285        -0.274403
 H        -0.604362        -0.044151        -0.910555
 H        -0.383885        -1.008254         0.629917
 H        -0.573351         0.798995         0.649975
 H         2.293530         1.725890         0.883130
 H         2.828400         0.279867         1.680160
 H         1.703118         1.846316        -1.190306
 H         1.657182         0.133015        -2.265972
 H         5.405390        -1.754160        -1.173421
 H         4.978667        -1.219292         0.668095
 H         2.977974        -1.562991        -1.903206
