19
Iteration:   295
 C        -0.177618        -0.028890         0.165476
 C         1.332769        -0.056946        -0.145452
 C         2.485716         0.586714         0.822085
 C         3.217317         0.393656        -0.609806
 C         1.998421         1.062589        -1.350090
 O         4.760096         0.190072        -0.710852
 C         4.604651        -1.207025        -0.599653
 C         3.118384        -1.028482        -1.051002
 O         1.884575        -1.440905        -0.298457
 H        -0.166011        -0.265798         1.308314
 H        -0.602542         0.916231        -0.034349
 H        -0.815472        -0.815593        -0.210836
 H         2.302965         1.631843         0.993235
 H         2.670422        -0.006158         1.700921
 H         1.849723         2.052411        -1.081950
 H         2.064069         0.701160        -2.385414
 H         5.291463        -1.616754        -1.405374
 H         4.738638        -1.666696         0.361834
 H         2.969736        -1.156277        -2.129254
