19
Iteration:   850
 C        -0.071109        -0.062484         0.294496
 C         1.372911        -0.032644        -0.192612
 C         2.536246         0.476155         0.706711
 C         3.316919         0.411809        -0.708979
 C         1.962770         0.921351        -1.312431
 O         4.771575         0.308767        -0.722021
 C         4.561428        -1.169028        -0.391542
 C         3.076190        -1.049427        -0.979773
 O         1.749407        -1.359069        -0.508401
 H        -0.123326        -0.283808         1.390316
 H        -0.385236         0.979701         0.201410
 H        -0.678152        -0.768132        -0.182306
 H         2.392589         1.557434         1.121812
 H         2.937127        -0.189853         1.558681
 H         1.520265         1.872076        -1.024671
 H         1.798021         0.533046        -2.308385
 H         5.181811        -1.921438        -0.928435
 H         4.454692        -1.255291         0.639340
 H         3.074733        -1.240791        -2.037125
