19
Iteration:  3073
 C        -0.086660         0.034262         0.253256
 C         1.362874        -0.030403        -0.126547
 C         2.489929         0.610709         0.741842
 C         3.226905         0.361173        -0.656224
 C         2.003978         0.843457        -1.357843
 O         4.591324         0.285751        -0.852139
 C         4.614296        -1.093674        -0.340676
 C         3.172145        -1.121067        -0.932750
 O         1.887511        -1.490002        -0.456090
 H        -0.447288        -0.015252         1.279917
 H        -0.407066         0.965043        -0.068979
 H        -0.666504        -0.715779        -0.311812
 H         2.246585         1.597591         0.863758
 H         2.727156        -0.059481         1.581539
 H         1.704902         1.892552        -1.198931
 H         1.824134         0.687513        -2.370233
 H         5.540462        -1.557616        -0.794151
 H         4.716589        -1.110846         0.739037
 H         3.267572        -1.252663        -2.022835
