19
Iteration:  3840charge 0 multiplicity 1
 C        -0.179522         0.056701         0.078952
 C         1.342881         0.042800        -0.167820
 C         2.406262         0.528197         0.744913
 C         3.233721         0.387581        -0.672976
 C         1.940397         0.775069        -1.373059
 O         4.704647         0.341115        -0.901026
 C         4.661118        -1.130226        -0.503331
 C         3.174931        -1.114072        -0.812072
 O         1.911147        -1.451888        -0.134819
 H        -0.395388        -0.829902        -0.447554
 H        -0.283925         0.100898         1.160460
 H        -0.427469         1.107254        -0.278293
 H         2.297161         1.581870         1.048814
 H         2.760642        -0.165402         1.508530
 H         1.550849         1.815776        -1.380308
 H         1.722499         0.482445        -2.432252
 H         5.325423        -1.712471        -1.148829
 H         5.057918        -1.145755         0.594883
 H         3.151888        -1.591478        -1.838449
