19
Iteration:  3183charge 0 multiplicity 1
 C        -0.211305         0.021424         0.104467
 C         1.303073         0.086751        -0.157703
 C         2.506105         0.530441         0.633664
 C         3.188632         0.359032        -0.712790
 C         1.941251         0.754252        -1.335724
 O         4.652980         0.367619        -0.858106
 C         4.695877        -1.149616        -0.388719
 C         3.157796        -1.095162        -0.817035
 O         1.951860        -1.425084        -0.186519
 H        -0.495131        -1.012919        -0.327310
 H        -0.498126         0.397139         1.046517
 H        -0.664131         0.689689        -0.636670
 H         2.694106         1.385743         1.257899
 H         2.826964        -0.252604         1.325045
 H         1.595310         1.844662        -1.298850
 H         1.752006         0.416611        -2.363366
 H         5.303175        -1.791647        -1.152002
 H         5.164369        -1.088932         0.577152
 H         3.235371        -1.326832        -1.878024
