19
Iteration:  1435charge 0 multiplicity 1
 C        -0.130669         0.029036         0.166708
 C         1.353092        -0.087518        -0.155656
 C         2.540898         0.461902         0.738541
 C         3.289018         0.445370        -0.697525
 C         1.974019         0.998520        -1.236703
 O         4.728935         0.309667        -0.885637
 C         4.624990        -1.153846        -0.408014
 C         3.124900        -1.112497        -0.934165
 O         1.779571        -1.463146        -0.351293
 H        -0.477081        -0.706257         0.964146
 H        -0.415766         0.990783         0.296558
 H        -0.986369        -0.193651        -0.638218
 H         2.439557         1.521950         1.125477
 H         3.074301        -0.183170         1.479135
 H         1.813342         2.026163        -0.863246
 H         1.582813         0.851379        -2.262126
 H         5.409639        -1.647622        -0.976768
 H         4.722933        -1.295632         0.674455
 H         2.958234        -1.458908        -1.948459
