19
Iteration:  3541
 C        -0.124883        -0.052980         0.175030
 C         1.359391         0.007802        -0.172913
 C         2.570061         0.723873         0.660917
 C         3.196526         0.374539        -0.649715
 C         1.968705         0.802132        -1.375176
 O         4.667124         0.365404        -0.906566
 C         4.616137        -1.114485        -0.378429
 C         3.167654        -1.148750        -0.839196
 O         1.827283        -1.524610        -0.247647
 H        -0.625894        -0.065271        -0.842008
 H        -0.432752        -0.875033         0.819064
 H        -0.536006         0.857631         0.538943
 H         2.305913         1.769372         1.003979
 H         2.949781         0.176729         1.544151
 H         1.668251         1.812590        -1.280650
 H         1.848301         0.414657        -2.419936
 H         5.371151        -1.833814        -0.923301
 H         4.910491        -1.075434         0.713184
 H         3.156140        -1.318526        -1.987869
