19
Iteration:  1458charge 0 multiplicity 1
 C        -0.007755        -0.028759         0.239309
 C         1.416101         0.007504        -0.094709
 C         2.572728         0.530677         0.730534
 C         3.222949         0.333248        -0.659723
 C         1.972459         0.949772        -1.324886
 O         4.657419         0.284890        -0.743074
 C         4.519429        -1.144319        -0.448666
 C         3.076738        -1.062866        -1.018888
 O         1.858139        -1.399152        -0.441580
 H        -0.211143        -0.516642         1.247072
 H        -0.585361         0.797991         0.080324
 H        -0.692216        -0.737757        -0.384918
 H         2.557219         1.608814         0.980863
 H         2.787338        -0.115068         1.588263
 H         1.690284         2.002891        -1.110244
 H         1.858666         0.650402        -2.428492
 H         5.187606        -1.826946        -0.964598
 H         4.498808        -1.317781         0.649258
 H         2.961320        -1.314478        -2.038015
