19
Iteration:  1150charge 0 multiplicity 1
 C        -0.035262         0.123906         0.330201
 C         1.376818        -0.047826        -0.199808
 C         2.483753         0.372731         0.671141
 C         3.253707         0.335836        -0.691177
 C         1.979738         0.893740        -1.334207
 O         4.681361         0.339643        -0.742818
 C         4.641148        -1.068556        -0.351880
 C         3.219171        -1.118913        -0.991447
 O         1.675221        -1.448699        -0.472819
 H        -0.088247        -0.738145         0.926810
 H        -0.161435         1.104902         0.671970
 H        -0.822965         0.188739        -0.511104
 H         2.253913         1.378578         1.070927
 H         2.794533        -0.269042         1.502886
 H         1.895097         2.008482        -0.952061
 H         1.779580         0.781725        -2.450927
 H         5.275143        -1.732616        -0.984549
 H         4.783536        -1.152247         0.751481
 H         3.122089        -1.297457        -2.031482
