19
Iteration:  4695charge 0 multiplicity 1
 C        -0.175873         0.042745         0.187150
 C         1.372775         0.024018        -0.189542
 C         2.563288         0.483684         0.643207
 C         3.277589         0.372964        -0.640118
 C         1.915519         0.773466        -1.407064
 O         4.735405         0.323034        -0.848654
 C         4.673574        -0.999456        -0.385187
 C         3.165041        -1.100797        -0.835457
 O         1.732927        -1.439122        -0.287851
 H        -0.726897        -0.218800        -0.690688
 H        -0.225227        -0.803362         0.833139
 H        -0.693457         0.990547         0.493782
 H         2.429483         1.589193         1.022496
 H         2.803522        -0.139084         1.538477
 H         1.612215         1.817007        -1.346745
 H         1.919030         0.290905        -2.366630
 H         5.394696        -1.713715        -0.872148
 H         4.847956        -1.146097         0.734834
 H         3.211300        -1.541653        -1.895679
