19
Iteration:  1224
 C        -0.155125        -0.034857         0.214543
 C         1.337906         0.047261        -0.180218
 C         2.502071         0.577242         0.693029
 C         3.180458         0.351741        -0.647991
 C         2.026544         1.004615        -1.332634
 O         4.694037         0.218561        -0.731566
 C         4.631864        -1.220724        -0.476933
 C         3.073727        -1.050523        -0.999655
 O         1.903095        -1.417084        -0.339987
 H        -0.126257        -0.785826         0.998630
 H        -0.513886         0.974049         0.583339
 H        -0.787131        -0.467121        -0.578505
 H         2.471323         1.641026         1.084416
 H         2.870185        -0.127296         1.507343
 H         1.973876         1.997059        -1.032252
 H         1.847264         0.674730        -2.311186
 H         5.407516        -1.690636        -1.074364
 H         4.760633        -1.516713         0.571076
 H         2.941917        -1.196816        -2.103126
