19
Iteration:  4438charge 0 multiplicity 1
 C        -0.040133         0.020764         0.338674
 C         1.336577         0.021124        -0.246745
 C         2.419098         0.465163         0.592616
 C         3.241895         0.384188        -0.775041
 C         1.921567         0.836751        -1.475341
 O         4.698686         0.319998        -0.823043
 C         4.611706        -1.043922        -0.239514
 C         3.172560        -1.146167        -0.884849
 O         1.859836        -1.388165        -0.308591
 H        -0.976958         0.214089        -0.221149
 H        -0.063488        -0.965184         0.867552
 H        -0.154171         0.909327         1.038346
 H         2.536380         1.524973         0.969268
 H         2.537704        -0.285382         1.414178
 H         1.773976         1.932725        -1.843036
 H         1.773653         0.128488        -2.345522
 H         5.420461        -1.661766        -0.712073
 H         4.608264        -1.083962         0.849287
 H         3.218116        -1.649288        -1.890361
