19
Iteration:  1383
 C        -0.088123         0.044571         0.245697
 C         1.350778        -0.072668        -0.185515
 C         2.573141         0.505359         0.698609
 C         3.237012         0.412760        -0.628799
 C         1.953603         0.881135        -1.366077
 O         4.724298         0.334183        -0.730822
 C         4.595432        -1.118851        -0.467644
 C         3.116301        -1.150131        -0.942287
 O         1.776319        -1.447045        -0.371492
 H        -0.512461        -0.927772         0.621719
 H        -0.265626         0.878627         0.850813
 H        -0.740724         0.348565        -0.582798
 H         2.501814         1.533179         0.878082
 H         3.016734        -0.063379         1.484409
 H         1.620004         1.913058        -1.077994
 H         1.895426         0.760674        -2.511870
 H         5.298200        -1.616853        -1.139385
 H         4.892906        -1.317062         0.603249
 H         2.994605        -1.309825        -1.991642
