19
Iteration:  2843
 C        -0.178385        -0.003787         0.162149
 C         1.345062         0.029757        -0.120432
 C         2.462774         0.484938         0.770937
 C         3.238337         0.384773        -0.747932
 C         1.974461         0.837582        -1.339868
 O         4.760362         0.297438        -0.884825
 C         4.639674        -1.122451        -0.380292
 C         3.142645        -1.022364        -0.943069
 O         1.879309        -1.408151        -0.292250
 H        -0.509449        -0.474021         1.060570
 H        -0.564611         1.034264         0.195834
 H        -0.481392        -0.677292        -0.669278
 H         2.240080         1.402215         1.365459
 H         2.740677        -0.277479         1.517463
 H         1.768280         1.873450        -1.255089
 H         1.612083         0.307398        -2.215133
 H         5.247694        -1.823027        -0.884959
 H         4.748667        -1.069150         0.723099
 H         3.044971        -1.159297        -2.082806
