19
Iteration:  4782
 C        -0.051714        -0.100710         0.224768
 C         1.343123         0.140826        -0.180073
 C         2.501967         0.666940         0.707752
 C         3.233988         0.343664        -0.703639
 C         1.966693         0.771099        -1.430744
 O         4.660752         0.307619        -0.733041
 C         4.658791        -1.116192        -0.378695
 C         3.110737        -1.171937        -0.918549
 O         1.828397        -1.388789        -0.385189
 H        -0.457696        -1.047165        -0.069118
 H        -0.105754        -0.040875         1.334679
 H        -0.714873         0.759714        -0.165280
 H         2.623879         1.777659         1.107944
 H         2.697194         0.032854         1.648213
 H         1.807208         1.884869        -1.416588
 H         1.689137         0.358304        -2.416829
 H         5.362385        -1.772648        -0.966044
 H         4.637676        -1.151347         0.729638
 H         3.040596        -1.480771        -2.004213
