19
Iteration:  2946charge 0 multiplicity 1
 C        -0.023037         0.009573         0.295330
 C         1.395960        -0.070905        -0.146856
 C         2.566197         0.541756         0.617856
 C         3.260213         0.271915        -0.741314
 C         1.959475         0.857094        -1.344420
 O         4.614372         0.381031        -0.777389
 C         4.588488        -0.979206        -0.217396
 C         3.175238        -1.204322        -1.022565
 O         1.729366        -1.446393        -0.467752
 H        -0.215212        -0.985961         0.821145
 H        -0.122381         0.884220         0.875703
 H        -0.767453         0.318190        -0.404148
 H         2.606239         1.666857         0.642421
 H         2.821288         0.308085         1.696596
 H         1.961385         1.925450        -1.205516
 H         1.703593         0.491763        -2.341935
 H         5.467392        -1.560929        -0.549979
 H         4.429304        -1.030699         0.832493
 H         3.109713        -1.662938        -1.997616
