19
Iteration:  4574
 C        -0.052271         0.018138         0.379076
 C         1.354247        -0.052636        -0.227288
 C         2.564905         0.473047         0.548719
 C         3.215400         0.440722        -0.754918
 C         1.882294         0.816118        -1.469275
 O         4.718288         0.332532        -0.771753
 C         4.495814        -1.090240        -0.187550
 C         3.162443        -1.052652        -0.923153
 O         1.865880        -1.458438        -0.389042
 H        -0.783391        -0.459241        -0.220223
 H        -0.012447        -0.206763         1.405933
 H        -0.225776         1.061854         0.141191
 H         2.417405         1.412352         1.153981
 H         2.929275        -0.226576         1.301365
 H         1.767564         1.854701        -1.471633
 H         1.730881         0.370289        -2.418274
 H         5.087752        -1.685391        -0.790307
 H         4.627080        -1.020782         0.865348
 H         3.210364        -1.293815        -2.043080
