19
Iteration:  1871
 C        -0.196978         0.047725         0.178049
 C         1.320647         0.035209        -0.098143
 C         2.564888         0.538680         0.763114
 C         3.257391         0.342353        -0.621549
 C         1.922174         0.854526        -1.386886
 O         4.749929         0.301912        -0.735698
 C         4.598142        -1.195573        -0.510383
 C         3.094771        -1.033912        -0.949100
 O         1.900950        -1.391516        -0.392949
 H        -0.324662        -0.288116         1.224555
 H        -0.778434         0.864521         0.060094
 H        -0.446617        -0.836672        -0.457672
 H         2.610776         1.492777         1.322169
 H         2.643334        -0.280575         1.470470
 H         1.699526         1.897298        -1.193258
 H         1.755634         0.465711        -2.433087
 H         5.212622        -1.781515        -1.256658
 H         4.779169        -1.529030         0.531854
 H         3.274809        -1.209080        -1.967542
