19
Iteration:  2945charge 0 multiplicity 1
 C        -0.022458         0.013414         0.301402
 C         1.396868        -0.074068        -0.148038
 C         2.564406         0.549309         0.613762
 C         3.266543         0.275329        -0.736237
 C         1.955516         0.871009        -1.359065
 O         4.608182         0.376382        -0.773588
 C         4.583962        -0.981619        -0.217576
 C         3.169112        -1.199692        -1.023375
 O         1.737722        -1.460229        -0.468193
 H        -0.254544        -0.989443         0.829576
 H        -0.087059         0.853418         0.899068
 H        -0.755192         0.333985        -0.448787
 H         2.625923         1.658384         0.668504
 H         2.789859         0.312693         1.723023
 H         1.967255         1.929801        -1.196146
 H         1.726069         0.471957        -2.291565
 H         5.468229        -1.561555        -0.563475
 H         4.482404        -0.996164         0.823697
 H         3.098833        -1.696591        -2.011709
