19
Iteration:  1455
 C        -0.021540        -0.035755         0.232150
 C         1.419715        -0.007076        -0.074259
 C         2.582595         0.524788         0.713989
 C         3.228348         0.315409        -0.653084
 C         1.972842         0.968241        -1.322190
 O         4.687337         0.301896        -0.757589
 C         4.510474        -1.124398        -0.452692
 C         3.078565        -1.078439        -1.011697
 O         1.832278        -1.414234        -0.423075
 H        -0.188223        -0.527436         1.174243
 H        -0.519939         0.898676         0.043198
 H        -0.612398        -0.669819        -0.436839
 H         2.409061         1.644332         0.929431
 H         2.771657        -0.159165         1.571430
 H         1.639304         1.962363        -1.070134
 H         1.918992         0.788794        -2.356076
 H         5.131264        -1.870563        -0.942069
 H         4.486540        -1.241734         0.621639
 H         2.971554        -1.356608        -2.088818
