19
Iteration:   567charge 0 multiplicity 1
 C        -0.157908        -0.000456         0.227705
 C         1.314192         0.028387        -0.137857
 C         2.614828         0.553061         0.655242
 C         3.219782         0.408288        -0.721702
 C         1.881999         0.917306        -1.303311
 O         4.743025         0.213407        -0.701996
 C         4.621498        -1.228414        -0.443813
 C         3.138467        -1.033329        -0.945752
 O         1.835160        -1.388208        -0.403996
 H        -0.291157        -1.123166         0.669404
 H        -0.447869         0.630163         1.115174
 H        -0.872879        -0.118468        -0.626338
 H         2.446555         1.601961         0.893144
 H         3.162558        -0.013719         1.411662
 H         1.751769         2.033263        -1.076638
 H         1.578361         0.774754        -2.339820
 H         5.419483        -1.660391        -1.168800
 H         4.748072        -1.352787         0.664933
 H         3.229323        -1.289253        -2.070079
