19
Iteration:   824
 C        -0.085678        -0.077583         0.286125
 C         1.354688         0.120401        -0.129767
 C         2.491512         0.614983         0.733367
 C         3.256007         0.347969        -0.726655
 C         1.934527         1.042324        -1.352163
 O         4.635287         0.242554        -0.705369
 C         4.597260        -1.238575        -0.430161
 C         3.147139        -1.114120        -1.031442
 O         1.937416        -1.468550        -0.438024
 H        -0.276786        -0.762586         1.088856
 H        -0.478429         0.927080         0.527732
 H        -0.755889        -0.497927        -0.654324
 H         2.468393         1.655105         1.177836
 H         2.810878        -0.004407         1.609394
 H         1.774435         2.114736        -0.973922
 H         1.625677         0.873043        -2.407515
 H         5.286847        -1.850820        -1.050143
 H         4.417756        -1.493105         0.669019
 H         3.192450        -1.268547        -2.144526
