19
Iteration:  2717charge 0 multiplicity 1
 C        -0.162073        -0.015004         0.100709
 C         1.325878         0.100811        -0.142401
 C         2.515967         0.405945         0.771565
 C         3.250833         0.384736        -0.670732
 C         1.930060         0.870860        -1.393085
 O         4.707608         0.358698        -0.848807
 C         4.586963        -1.080157        -0.396399
 C         3.204126        -1.162121        -0.911340
 O         1.851012        -1.390892        -0.237398
 H        -0.290596        -0.541861         1.108132
 H        -0.584064         0.955717         0.106740
 H        -0.544449        -0.661989        -0.744405
 H         2.734352         1.440254         0.946604
 H         2.827587        -0.264192         1.571284
 H         1.537665         1.971072        -1.462226
 H         1.845334         0.521710        -2.451703
 H         5.331447        -1.752883        -0.994437
 H         4.875775        -1.248002         0.653080
 H         3.076556        -1.535590        -1.905815
