19
Iteration:  3250charge 0 multiplicity 1
 C        -0.028188        -0.076223         0.309726
 C         1.320617         0.064940        -0.201475
 C         2.447644         0.590180         0.520748
 C         3.245854         0.370898        -0.767201
 C         1.823598         0.718753        -1.505174
 O         4.764248         0.275020        -0.754323
 C         4.599020        -1.041525        -0.248615
 C         3.166209        -1.071944        -0.934384
 O         1.859659        -1.351251        -0.284555
 H        -0.833780         0.008450        -0.462192
 H        -0.066686        -0.994969         1.011868
 H        -0.012155         0.766665         0.977128
 H         2.387143         1.580397         1.076987
 H         2.738075         0.038247         1.423349
 H         1.595613         1.781370        -1.495464
 H         1.694440         0.175700        -2.510364
 H         5.313543        -1.774937        -0.697268
 H         4.609271        -1.050128         0.877118
 H         3.265374        -1.543441        -1.924374
