19
Iteration:  1913charge 0 multiplicity 1
 C        -0.096568         0.031275         0.140911
 C         1.374133         0.042284        -0.134931
 C         2.554988         0.468537         0.835661
 C         3.250640         0.346676        -0.657628
 C         2.030278         0.969470        -1.311289
 O         4.601043         0.327369        -0.850112
 C         4.595505        -1.153770        -0.430509
 C         3.130104        -1.125749        -0.921513
 O         1.840860        -1.501213        -0.387503
 H        -0.482722        -0.037251         1.161685
 H        -0.534835         0.998935        -0.235194
 H        -0.659140        -0.759717        -0.509112
 H         2.403149         1.481146         1.161805
 H         3.032241        -0.188952         1.488418
 H         1.855353         2.027319        -0.983637
 H         1.733455         0.911913        -2.444802
 H         5.212078        -1.749289        -1.080861
 H         4.817589        -1.098901         0.681918
 H         3.052917        -1.330176        -1.944599
