19
Iteration:  3059
 C        -0.169567         0.047079         0.157010
 C         1.333340        -0.061133        -0.147227
 C         2.468612         0.478832         0.744255
 C         3.240893         0.364300        -0.620136
 C         1.930291         0.869062        -1.350682
 O         4.811775         0.364552        -0.856723
 C         4.649702        -1.074099        -0.447293
 C         3.144477        -1.104583        -0.922092
 O         1.819663        -1.447402        -0.329564
 H        -0.154465         0.031962         1.219922
 H        -0.743774         0.979020        -0.207613
 H        -0.594290        -0.886868        -0.256591
 H         2.343788         1.587755         0.936107
 H         2.850501         0.031751         1.667734
 H         1.750417         1.935057        -1.144772
 H         1.841654         0.259757        -2.309784
 H         5.226419        -1.861990        -0.888298
 H         4.655645        -1.170090         0.682421
 H         3.121394        -1.389505        -1.944826
