19
Iteration:  1809charge 0 multiplicity 1
 C        -0.094480         0.053991         0.303543
 C         1.387130        -0.022515        -0.152786
 C         2.576165         0.437066         0.694527
 C         3.252572         0.345163        -0.717270
 C         1.902551         0.927485        -1.408469
 O         4.707334         0.312833        -0.789637
 C         4.573926        -1.095018        -0.232014
 C         3.133338        -1.079247        -0.988051
 O         1.843990        -1.411541        -0.512362
 H        -0.163791        -1.007896         0.852874
 H        -0.256531         0.858176         1.085316
 H        -0.973732         0.081705        -0.322637
 H         2.415063         1.447660         1.188738
 H         2.855172        -0.377320         1.414093
 H         1.825930         1.994754        -1.322249
 H         1.533519         0.644235        -2.386539
 H         5.262558        -1.869761        -0.655230
 H         4.601761        -1.266952         0.822509
 H         2.878748        -1.301618        -2.106370
