19
Iteration:  3124charge 0 multiplicity 1
 C        -0.167761        -0.068190         0.371082
 C         1.251885         0.034966        -0.229478
 C         2.534379         0.583719         0.649097
 C         3.192602         0.380662        -0.763158
 C         1.897974         0.824445        -1.479783
 O         4.763675         0.293166        -0.722077
 C         4.623614        -1.124779        -0.265009
 C         3.196112        -1.083405        -0.948060
 O         1.899785        -1.365871        -0.418980
 H        -0.299968        -1.012313         0.866197
 H        -0.253974         0.663276         1.266324
 H        -1.054087         0.073908        -0.317671
 H         2.532106         1.676269         0.811367
 H         2.998887        -0.101913         1.370567
 H         1.504247         1.874008        -1.618310
 H         1.851918         0.277621        -2.503834
 H         5.260170        -1.817069        -0.766081
 H         4.772885        -1.192569         0.848158
 H         3.298334        -1.418564        -1.977274
