19
Iteration:  3494
 C        -0.225954        -0.018727         0.121119
 C         1.311502         0.022941        -0.102052
 C         2.531384         0.636817         0.610155
 C         3.262848         0.333784        -0.676661
 C         1.893380         0.860630        -1.357499
 O         4.722709         0.351866        -0.797768
 C         4.650099        -1.142580        -0.491662
 C         3.159369        -1.118425        -0.831791
 O         1.920209        -1.508937        -0.223444
 H        -0.684570        -0.867904        -0.410333
 H        -0.285269        -0.140730         1.176485
 H        -0.868800         0.863090        -0.174970
 H         2.414097         1.711520         0.619025
 H         2.892959         0.326505         1.619495
 H         1.752323         1.958834        -1.149928
 H         1.585414         0.601327        -2.328381
 H         5.379294        -1.623608        -1.217553
 H         5.057131        -1.263846         0.560501
 H         3.052630        -1.525357        -1.865553
