19
Iteration:  1023
 C        -0.065489         0.078534         0.306069
 C         1.329706        -0.087216        -0.234164
 C         2.601876         0.435422         0.716930
 C         3.253440         0.381304        -0.629294
 C         1.883245         0.934518        -1.289675
 O         4.653875         0.310894        -0.759026
 C         4.677657        -1.171942        -0.313900
 C         3.142374        -1.076272        -0.973763
 O         1.769501        -1.415049        -0.563869
 H        -0.439573        -0.474491         1.155288
 H        -0.041738         1.102375         0.712294
 H        -0.722772         0.089842        -0.524165
 H         2.404588         1.488537         0.917631
 H         2.853700        -0.277967         1.433238
 H         1.670624         1.913614        -1.192506
 H         1.603139         0.784433        -2.292863
 H         5.334063        -1.802146        -0.925536
 H         5.007906        -1.330418         0.695168
 H         3.248156        -1.339508        -2.062088
