19
Iteration:  1116charge 0 multiplicity 1
 C        -0.177095         0.066704         0.218503
 C         1.393580         0.033472        -0.138697
 C         2.506479         0.448229         0.773873
 C         3.240712         0.358659        -0.655118
 C         1.985873         0.888362        -1.294683
 O         4.681128         0.282948        -0.719391
 C         4.573467        -1.191492        -0.496022
 C         3.178101        -1.044286        -1.002322
 O         1.872008        -1.404873        -0.432763
 H        -0.523005        -0.285106         1.180186
 H        -0.620509         1.058046         0.256253
 H        -0.728519        -0.542231        -0.578162
 H         2.415343         1.530854         0.991585
 H         2.853411        -0.262904         1.588470
 H         1.934982         2.020478        -1.132940
 H         1.637133         0.658962        -2.321970
 H         5.221480        -1.754746        -1.193505
 H         4.876510        -1.438579         0.544662
 H         3.241619        -1.326563        -2.023155
