19
Iteration:  4112charge 0 multiplicity 1
 C        -0.078302        -0.025282         0.335066
 C         1.338073        -0.055026        -0.175144
 C         2.498027         0.553772         0.626083
 C         3.235765         0.365904        -0.752350
 C         1.837389         0.867941        -1.522264
 O         4.762619         0.298704        -0.787925
 C         4.574684        -1.047195        -0.291650
 C         3.197446        -1.127909        -0.900030
 O         1.838334        -1.374199        -0.361190
 H        -0.491979        -1.032296        -0.049536
 H         0.057462        -0.011962         1.452157
 H        -0.605905         0.875519        -0.099201
 H         2.422121         1.595632         1.150677
 H         2.813262        -0.114349         1.477709
 H         1.607302         1.901344        -1.469986
 H         1.679743         0.342011        -2.481391
 H         5.267545        -1.786313        -0.662329
 H         4.553523        -1.009014         0.860078
 H         3.414572        -1.512334        -1.892307
