19
Iteration:  3479
 C        -0.116597        -0.037859         0.266175
 C         1.358796        -0.022284        -0.172248
 C         2.505172         0.660977         0.651860
 C         3.208619         0.323083        -0.707463
 C         1.986332         0.812813        -1.389376
 O         4.613028         0.344971        -0.784188
 C         4.719143        -1.070089        -0.393148
 C         3.110522        -1.161847        -0.857174
 O         1.849828        -1.437814        -0.353205
 H        -0.554491        -0.961512        -0.087238
 H        -0.467239         0.158576         1.366180
 H        -0.390032         0.850706        -0.337835
 H         2.410383         1.745077         0.806799
 H         2.774495         0.149637         1.573134
 H         1.679070         1.862134        -1.269383
 H         1.840294         0.483827        -2.480062
 H         5.179547        -1.708881        -1.085345
 H         5.237187        -1.291998         0.561722
 H         3.187809        -1.437357        -1.888536
