19
Iteration:  3222
 C        -0.132532        -0.001875         0.182953
 C         1.327207        -0.065374        -0.104522
 C         2.515420         0.663011         0.617741
 C         3.239724         0.350434        -0.671936
 C         2.001565         0.776828        -1.402980
 O         4.622955         0.351953        -0.891819
 C         4.650307        -1.059429        -0.306351
 C         3.196645        -1.127431        -0.903082
 O         1.825041        -1.480645        -0.283153
 H        -0.735752        -0.541962        -0.507775
 H        -0.346417        -0.470050         1.164954
 H        -0.402556         1.100149         0.278480
 H         2.258460         1.724673         0.661059
 H         2.920072         0.259913         1.566626
 H         1.705504         1.777466        -1.110830
 H         2.045793         0.511696        -2.443710
 H         5.324740        -1.675439        -0.847775
 H         4.849080        -1.100827         0.773899
 H         3.199981        -1.540164        -1.936244
