19
Iteration:  3051
 C        -0.165847         0.008808         0.100991
 C         1.309129        -0.044678        -0.177231
 C         2.501973         0.476980         0.734507
 C         3.244887         0.392964        -0.656967
 C         1.926239         0.825612        -1.302304
 O         4.869260         0.379329        -0.826824
 C         4.629891        -1.106765        -0.472196
 C         3.124880        -1.091785        -0.884701
 O         1.800534        -1.390800        -0.265432
 H        -0.291469         0.070056         1.184407
 H        -0.681034         0.852047        -0.210168
 H        -0.707718        -0.926459        -0.146775
 H         2.461068         1.473650         0.922932
 H         2.739413        -0.303032         1.467565
 H         1.531993         1.862190        -1.342716
 H         1.695547         0.520729        -2.305510
 H         5.326632        -1.745628        -1.114889
 H         4.905544        -1.257809         0.572579
 H         3.025379        -1.466934        -1.910874
