19
Iteration:  4874
 C        -0.082867        -0.015388         0.267499
 C         1.316695         0.037642        -0.235746
 C         2.461154         0.584028         0.555458
 C         3.226445         0.346800        -0.728964
 C         1.925067         0.889761        -1.474672
 O         4.714170         0.287512        -0.776826
 C         4.681372        -1.156674        -0.258441
 C         3.135317        -1.130963        -0.851630
 O         1.849774        -1.395013        -0.309888
 H        -0.915301         0.164053        -0.488709
 H        -0.211300        -1.043100         0.609970
 H        -0.253514         0.602560         1.105285
 H         2.310145         1.648080         0.745176
 H         2.785226         0.056663         1.473376
 H         1.537334         1.878496        -1.288943
 H         1.793161         0.613479        -2.508870
 H         5.386661        -1.737113        -0.803508
 H         4.837056        -0.998662         0.811311
 H         3.319434        -1.702282        -1.809127
