19
Iteration:   172
 C        -0.083841        -0.111981         0.305566
 C         1.371326         0.083114        -0.161106
 C         2.604918         0.653266         0.727171
 C         3.256801         0.387707        -0.680656
 C         1.887922         0.842589        -1.377082
 O         4.762275         0.242552        -0.679890
 C         4.593359        -1.169582        -0.484818
 C         3.104202        -1.124437        -0.966769
 O         1.772614        -1.350567        -0.475712
 H        -0.337453        -1.121780         0.612844
 H        -0.257952         0.595171         1.238593
 H        -0.829301         0.280417        -0.530457
 H         2.435011         1.657954         1.180838
 H         2.861949         0.074335         1.643965
 H         1.576489         1.963762        -1.203450
 H         1.712477         0.673459        -2.453795
 H         5.260072        -1.746563        -1.127462
 H         4.690480        -1.583034         0.579150
 H         3.086273        -1.368569        -2.058972
