19
Iteration:  1250
 C        -0.163210         0.100612         0.161507
 C         1.426549        -0.028472        -0.137950
 C         2.521267         0.509710         0.762591
 C         3.225047         0.318232        -0.602684
 C         1.953641         0.880575        -1.298754
 O         4.769358         0.316702        -0.746159
 C         4.627783        -1.165427        -0.523118
 C         3.095331        -1.100164        -0.959546
 O         1.793506        -1.384173        -0.407649
 H        -0.290875        -0.274432         1.177482
 H        -0.597022         1.010134         0.027819
 H        -0.525061        -0.779388        -0.418140
 H         2.343289         1.539155         1.066418
 H         2.608725        -0.087217         1.642566
 H         1.684087         1.936191        -0.944238
 H         1.846638         0.354273        -2.283581
 H         5.275344        -1.598461        -1.331656
 H         5.037012        -1.508054         0.448184
 H         2.947148        -1.267113        -2.005587
