19
Iteration:  1928charge 0 multiplicity 1
 C        -0.171167         0.059197         0.177449
 C         1.326569         0.047989        -0.150674
 C         2.531685         0.401912         0.743808
 C         3.218191         0.370294        -0.625215
 C         1.975606         0.897671        -1.284294
 O         4.745106         0.312545        -0.860658
 C         4.635698        -1.118956        -0.424689
 C         3.126415        -1.130345        -0.948168
 O         1.829158        -1.366739        -0.385242
 H        -0.176323        -0.428749         1.226314
 H        -0.610590         1.003207         0.041908
 H        -0.667129        -0.658918        -0.415344
 H         2.630315         1.419671         1.250170
 H         2.517136        -0.430904         1.523822
 H         1.765212         1.959427        -1.300477
 H         1.808404         0.419283        -2.262814
 H         5.510547        -1.698020        -0.887266
 H         4.714330        -1.284856         0.679531
 H         3.173749        -1.337091        -2.041612
