19
Iteration:  3298charge 0 multiplicity 1
 C        -0.031884         0.012869         0.331864
 C         1.376673        -0.042430        -0.251917
 C         2.465184         0.661569         0.612571
 C         3.195140         0.326877        -0.746613
 C         1.932735         0.783438        -1.492005
 O         4.654988         0.325059        -0.854230
 C         4.630823        -1.068638        -0.252906
 C         3.192031        -1.172622        -0.834292
 O         1.867063        -1.426205        -0.337480
 H        -0.688057         0.383164        -0.419359
 H        -0.349438        -0.990598         0.489914
 H        -0.165546         0.584429         1.276733
 H         2.222009         1.678975         0.750542
 H         2.631676         0.387536         1.647166
 H         1.492363         1.767773        -1.266571
 H         1.751582         0.405303        -2.463540
 H         5.447757        -1.686452        -0.570114
 H         4.581962        -0.976714         0.857619
 H         3.167549        -1.526934        -1.900360
