19
Iteration:  4085charge 0 multiplicity 1
 C        -0.117771         0.051181         0.426554
 C         1.322402        -0.053459        -0.198094
 C         2.509520         0.633173         0.612728
 C         3.313427         0.359497        -0.713251
 C         1.870792         0.735048        -1.460767
 O         4.718108         0.322258        -0.766483
 C         4.646718        -1.058664        -0.257863
 C         3.153820        -1.129495        -0.904273
 O         1.812849        -1.419479        -0.529847
 H        -0.643377        -0.845345         0.195372
 H         0.097706        -0.147985         1.454758
 H        -0.680729         0.870876         0.052503
 H         2.234136         1.637203         0.851607
 H         2.821659        -0.024744         1.433616
 H         1.562757         1.835560        -1.399059
 H         1.663671         0.225384        -2.394814
 H         5.393390        -1.810308        -0.660411
 H         4.708357        -0.876251         0.838696
 H         3.529241        -1.331781        -1.957930
