19
Iteration:  3088
 C         0.003104        -0.002392         0.280756
 C         1.400977        -0.055301        -0.211269
 C         2.537686         0.560142         0.618191
 C         3.175264         0.325588        -0.707819
 C         1.933575         0.881334        -1.355623
 O         4.596217         0.360142        -0.789187
 C         4.574692        -1.089411        -0.227472
 C         3.152519        -1.142397        -0.901185
 O         1.840387        -1.428257        -0.499796
 H         0.132963        -0.521231         1.273444
 H        -0.292459         1.082817         0.367021
 H        -0.732499        -0.515636        -0.320770
 H         2.594275         1.655696         0.959918
 H         2.897911         0.099458         1.557239
 H         1.656061         1.918267        -1.174665
 H         1.714663         0.533229        -2.411505
 H         5.260265        -1.730464        -0.783101
 H         4.684631        -1.120244         0.862566
 H         3.328419        -1.619705        -1.919758
