19
Iteration:  3852charge 0 multiplicity 1
 C        -0.103247         0.072446         0.056210
 C         1.357469        -0.039343        -0.144472
 C         2.525056         0.681815         0.746985
 C         3.252504         0.360267        -0.569172
 C         1.921715         0.746893        -1.346783
 O         4.670732         0.355019        -0.892994
 C         4.647362        -1.096604        -0.516829
 C         3.134617        -1.158558        -0.819921
 O         1.888262        -1.480349        -0.235374
 H        -0.699208        -0.764579        -0.284849
 H        -0.435533         0.042930         1.066600
 H        -0.687975         0.817713        -0.468610
 H         2.360595         1.729703         0.997497
 H         2.658198         0.135783         1.646156
 H         1.626525         1.777708        -1.272559
 H         1.796215         0.162727        -2.299795
 H         5.302708        -1.789931        -1.117416
 H         4.871763        -1.181242         0.610716
 H         3.012759        -1.305183        -1.949639
