19
Iteration:  3360
 C        -0.100791         0.007471         0.106845
 C         1.370323        -0.069822        -0.186641
 C         2.488497         0.723312         0.680685
 C         3.243434         0.318994        -0.720085
 C         1.975010         0.761813        -1.359233
 O         4.683004         0.337288        -0.866216
 C         4.624890        -1.049996        -0.458786
 C         3.146692        -1.143844        -0.817436
 O         1.866317        -1.441074        -0.142655
 H        -0.618865         0.195205        -0.872411
 H        -0.443880        -1.103266         0.407621
 H        -0.455396         0.715994         0.880990
 H         2.096123         1.791863         0.554775
 H         2.733505         0.242527         1.638194
 H         1.580740         1.732328        -1.045120
 H         1.683569         0.472142        -2.468771
 H         5.264727        -1.761249        -0.947171
 H         4.813862        -1.316194         0.649719
 H         3.155283        -1.459383        -1.852007
