19
Iteration:  2780charge 0 multiplicity 1
 C        -0.120440         0.023069         0.373847
 C         1.334404         0.052249        -0.263064
 C         2.503132         0.429965         0.651399
 C         3.240959         0.329761        -0.757657
 C         1.924302         0.841534        -1.455245
 O         4.675737         0.322061        -0.654544
 C         4.552647        -1.090448        -0.338712
 C         3.228338        -1.064497        -1.003791
 O         1.873516        -1.363610        -0.405602
 H         0.156340         0.127817         1.446017
 H        -0.945704         0.608091         0.018268
 H        -0.698677        -0.993694         0.264879
 H         2.527693         1.475603         1.135150
 H         3.078289        -0.226018         1.479633
 H         1.698150         1.944340        -1.434401
 H         1.745465         0.461090        -2.461118
 H         5.231085        -1.777650        -0.881928
 H         4.567459        -1.402698         0.690558
 H         3.460132        -1.381531        -2.037705
