19
Iteration:  1060
 C        -0.127807        -0.075571         0.230573
 C         1.353278         0.082599        -0.164926
 C         2.554482         0.464754         0.726157
 C         3.283118         0.331447        -0.575911
 C         2.050053         0.967771        -1.319446
 O         4.656065         0.313408        -0.746601
 C         4.554552        -1.211630        -0.463897
 C         3.082939        -1.070027        -1.093495
 O         1.822489        -1.361943        -0.394376
 H        -0.341974        -0.465777         1.263150
 H        -0.564545         1.000645         0.066643
 H        -0.659280        -0.829874        -0.419085
 H         2.641462         1.498519         1.206943
 H         2.753378        -0.218742         1.676150
 H         1.898405         2.073695        -1.050851
 H         2.055263         0.541403        -2.348335
 H         5.351908        -1.775292        -0.975398
 H         4.655476        -1.226839         0.654119
 H         3.112397        -1.266718        -2.147163
