19
Iteration:  4650
 C        -0.123263        -0.007460         0.053057
 C         1.355682         0.015980        -0.139784
 C         2.497700         0.594724         0.671802
 C         3.244259         0.387059        -0.640031
 C         1.945446         0.826226        -1.402739
 O         4.700287         0.333147        -0.822751
 C         4.635382        -1.100790        -0.477959
 C         3.049404        -1.118278        -0.897090
 O         1.935828        -1.480674        -0.121308
 H        -0.677492         0.257623        -0.821116
 H        -0.388799        -0.982162         0.381333
 H        -0.401143         0.729933         0.815269
 H         2.431727         1.740700         0.871201
 H         2.821687         0.099797         1.602428
 H         1.701853         1.887214        -1.383033
 H         1.733703         0.281967        -2.308306
 H         5.382873        -1.812512        -0.869831
 H         4.624383        -1.325259         0.570425
 H         2.912469        -1.263268        -2.010799
