19
Iteration:  3300charge 0 multiplicity 1
 C        -0.046730        -0.003132         0.319155
 C         1.371238        -0.040014        -0.252708
 C         2.469961         0.644117         0.622007
 C         3.209952         0.333029        -0.737504
 C         1.930332         0.772194        -1.498167
 O         4.665484         0.337903        -0.863289
 C         4.637381        -1.076298        -0.262674
 C         3.180566        -1.173550        -0.820598
 O         1.864386        -1.409126        -0.325288
 H        -0.711455         0.498662        -0.447198
 H        -0.336880        -0.986762         0.527649
 H        -0.122333         0.628062         1.252446
 H         2.213924         1.658709         0.761028
 H         2.654141         0.301409         1.652016
 H         1.410048         1.746688        -1.297419
 H         1.750310         0.444707        -2.487029
 H         5.486890        -1.735791        -0.553663
 H         4.521577        -0.941945         0.786402
 H         3.196866        -1.529387        -1.875392
