19
Iteration:  1906charge 0 multiplicity 1
 C        -0.080366         0.073232         0.120747
 C         1.401018        -0.059096        -0.102918
 C         2.557167         0.504315         0.781742
 C         3.183410         0.368050        -0.647482
 C         2.049645         0.981896        -1.295560
 O         4.622590         0.320094        -0.832984
 C         4.573654        -1.137820        -0.437315
 C         3.066652        -1.142664        -0.918163
 O         1.852178        -1.498385        -0.389891
 H        -0.482300        -0.159027         1.159675
 H        -0.470488         0.891884        -0.378225
 H        -0.406594        -0.764228        -0.451921
 H         2.508845         1.615270         1.010779
 H         2.868541        -0.138067         1.660147
 H         1.887498         1.932877        -0.819338
 H         1.719269         1.033069        -2.327040
 H         5.240570        -1.789919        -1.093586
 H         5.013874        -1.095688         0.564503
 H         3.076637        -1.310067        -2.029165
