19
Iteration:   228charge 0 multiplicity 1
 C        -0.015982         0.106712         0.262931
 C         1.363191        -0.036380        -0.219347
 C         2.551101         0.372568         0.696979
 C         3.217893         0.406723        -0.666003
 C         1.907628         0.942851        -1.224666
 O         4.693753         0.317361        -0.864357
 C         4.576350        -1.150608        -0.298912
 C         3.148248        -1.067437        -0.959643
 O         1.803905        -1.472113        -0.495495
 H        -0.165207        -0.595106         1.137435
 H        -0.132960         1.169136         0.558102
 H        -0.824302        -0.128739        -0.507890
 H         2.419311         1.431362         0.878427
 H         2.860894        -0.244208         1.512940
 H         1.634972         1.880455        -0.812109
 H         1.750536         0.777801        -2.307701
 H         5.239453        -1.884926        -0.811148
 H         4.605101        -1.198565         0.790058
 H         3.237502        -1.204076        -2.043875
