19
Iteration:  1841
 C        -0.017534         0.008326         0.285915
 C         1.372850        -0.084511        -0.174589
 C         2.495527         0.599099         0.712282
 C         3.248236         0.296703        -0.657647
 C         1.992264         0.920723        -1.413855
 O         4.718711         0.328128        -0.683316
 C         4.626657        -1.155852        -0.425590
 C         3.074385        -1.100611        -0.995315
 O         1.764381        -1.387818        -0.444590
 H         0.014329        -0.773934         1.161583
 H        -0.402559         0.944628         0.652425
 H        -0.746268        -0.446849        -0.375408
 H         2.245339         1.676156         0.979164
 H         2.664523        -0.068611         1.598552
 H         1.818673         1.921487        -1.109035
 H         1.755959         0.798588        -2.478094
 H         5.326380        -1.705476        -1.093738
 H         4.611090        -1.359175         0.639183
 H         3.045254        -1.413592        -2.162345
