19
Iteration:    31
 C        -0.092151        -0.094006         0.411893
 C         1.319833         0.082482        -0.109135
 C         2.544013         0.639520         0.607920
 C         3.304703         0.355834        -0.688589
 C         1.878160         0.900841        -1.408519
 O         4.746283         0.243189        -0.639242
 C         4.699193        -1.233158        -0.456713
 C         3.120570        -1.051928        -0.993822
 O         1.751851        -1.356433        -0.506366
 H        -0.137977        -0.251015         1.456692
 H        -1.013708         0.573332         0.132083
 H        -0.384560        -0.983990        -0.277052
 H         2.439847         1.727543         0.940478
 H         2.779581        -0.085970         1.450978
 H         1.657193         1.952901        -1.111897
 H         1.691998         0.570827        -2.402194
 H         5.450731        -1.757083        -1.036804
 H         4.727771        -1.531873         0.661760
 H         3.098338        -1.170162        -2.100125
