19
Iteration:   255
 C        -0.150557        -0.029320         0.203602
 C         1.343511         0.055696        -0.111059
 C         2.597354         0.490893         0.862654
 C         3.226666         0.360936        -0.635723
 C         1.998669         0.908170        -1.305907
 O         4.715957         0.277617        -0.721595
 C         4.652037        -1.098889        -0.544555
 C         3.103018        -1.161252        -1.029795
 O         1.760894        -1.365281        -0.449062
 H        -0.193451        -0.148471         1.270816
 H        -0.564209         0.998709        -0.000488
 H        -0.770522        -0.603258        -0.460665
 H         2.593250         1.598474         1.032967
 H         3.051848        -0.327258         1.486437
 H         1.737619         2.034132        -1.267285
 H         1.744624         0.442509        -2.238721
 H         5.378990        -1.715964        -1.052489
 H         4.679513        -1.396560         0.544056
 H         3.032566        -1.369772        -2.110868
