19
Iteration:  3809charge 0 multiplicity 1
 C        -0.110879        -0.029391         0.183522
 C         1.356874         0.045932        -0.158486
 C         2.557082         0.637187         0.638486
 C         3.223015         0.351112        -0.711219
 C         1.995964         0.822230        -1.392169
 O         4.636960         0.350890        -0.853349
 C         4.613315        -1.066265        -0.382320
 C         3.146734        -1.210418        -0.844014
 O         1.805628        -1.468506        -0.249181
 H        -0.678396        -0.525429        -0.640753
 H        -0.382746        -0.521031         1.082515
 H        -0.484067         0.974615         0.430976
 H         2.478593         1.716205         0.656627
 H         3.087373         0.271542         1.484538
 H         1.711672         1.825756        -1.127633
 H         1.926648         0.457542        -2.456793
 H         5.423969        -1.669359        -0.892184
 H         4.732383        -1.227012         0.740729
 H         3.282715        -1.602661        -1.899513
