19
Iteration:   532
 C        -0.071250         0.008361         0.366007
 C         1.358514         0.036980        -0.184216
 C         2.500379         0.507595         0.685567
 C         3.278457         0.388222        -0.642427
 C         2.051591         0.867926        -1.331803
 O         4.687948         0.309026        -0.751182
 C         4.494868        -1.202776        -0.427130
 C         3.105921        -1.050395        -0.999143
 O         1.831226        -1.407464        -0.502526
 H         0.215954        -0.741022         1.130349
 H        -0.538777         0.864887         0.799039
 H        -0.837726        -0.521073        -0.342186
 H         2.332250         1.592883         0.885289
 H         2.716935        -0.002420         1.638909
 H         1.969180         1.913830        -1.234124
 H         1.853931         0.482117        -2.344724
 H         5.321666        -1.859646        -0.887109
 H         4.503103        -1.351559         0.663260
 H         3.104113        -1.048098        -2.115979
