19
Iteration:  4641charge 0 multiplicity 1
 C        -0.192738        -0.069407         0.117942
 C         1.371987        -0.017224        -0.138727
 C         2.507903         0.614222         0.712157
 C         3.227090         0.372898        -0.668730
 C         1.943241         0.805533        -1.484810
 O         4.778304         0.338424        -0.830338
 C         4.667064        -1.111175        -0.423120
 C         3.128993        -1.061550        -0.889787
 O         1.824022        -1.412112        -0.148410
 H        -0.675316         0.224496        -0.779942
 H        -0.556337        -1.005789         0.464979
 H        -0.426177         0.711892         0.881678
 H         2.541284         1.635568         1.225081
 H         2.923574        -0.157633         1.378391
 H         1.841926         1.870971        -1.596287
 H         1.751331         0.356109        -2.425496
 H         5.168071        -1.631412        -1.175776
 H         4.649790        -1.277696         0.626193
 H         2.876397        -1.519981        -1.887759
