19
Iteration:  2431charge 0 multiplicity 1
 C        -0.081840         0.108505         0.225057
 C         1.355493        -0.059460        -0.157463
 C         2.595143         0.556909         0.666988
 C         3.227062         0.291289        -0.648492
 C         2.010535         0.833250        -1.365245
 O         4.559328         0.330230        -0.779475
 C         4.565067        -1.071672        -0.340948
 C         3.145307        -1.171119        -0.900609
 O         1.866515        -1.462222        -0.458950
 H        -0.429844        -0.768353         0.639585
 H         0.024569         0.943188         1.027384
 H        -0.814237         0.573024        -0.470862
 H         2.254729         1.530200         0.827065
 H         2.822306         0.086343         1.555780
 H         1.747813         1.887032        -1.405422
 H         1.819247         0.257850        -2.314152
 H         5.322967        -1.620680        -0.789602
 H         4.818530        -1.026510         0.764471
 H         3.384853        -1.186785        -2.032271
