19
Iteration:  4143
 C        -0.121085        -0.060979         0.140935
 C         1.363120        -0.025507        -0.103732
 C         2.560124         0.696949         0.656748
 C         3.205288         0.288879        -0.673730
 C         1.970857         0.882277        -1.407771
 O         4.619805         0.356064        -0.829809
 C         4.556548        -1.105674        -0.416428
 C         3.179676        -1.169642        -0.878115
 O         1.887523        -1.454165        -0.238284
 H        -0.466050        -0.771315        -0.599618
 H        -0.346002        -0.386338         1.144508
 H        -0.573594         0.919530         0.114632
 H         2.513689         1.817952         0.750522
 H         2.929555         0.294393         1.597633
 H         1.810394         1.900556        -1.388665
 H         1.853052         0.481167        -2.412540
 H         5.221901        -1.718509        -0.948953
 H         4.795172        -1.154524         0.733580
 H         3.137632        -1.467210        -1.969849
