19
Iteration:  4722
 C        -0.048193        -0.006316         0.314048
 C         1.417720        -0.005958        -0.147211
 C         2.482358         0.517181         0.648635
 C         3.243896         0.325374        -0.729407
 C         1.930481         0.888011        -1.478114
 O         4.614235         0.336282        -0.792365
 C         4.591781        -1.104293        -0.274958
 C         3.150837        -1.118199        -0.895337
 O         1.855832        -1.406949        -0.436214
 H        -0.839559        -0.642024        -0.210396
 H        -0.063731        -0.190064         1.415253
 H        -0.352358         0.964370        -0.017797
 H         2.323275         1.544932         0.799444
 H         2.754413         0.018841         1.565878
 H         1.808305         1.979016        -1.421308
 H         1.804211         0.338242        -2.421308
 H         5.388735        -1.779339        -0.505345
 H         4.663292        -1.114859         0.805569
 H         3.332993        -1.513696        -1.868200
