19
Iteration:  3241
 C        -0.040822        -0.040304         0.289117
 C         1.328199         0.043429        -0.240563
 C         2.476814         0.617260         0.648330
 C         3.206850         0.391345        -0.769099
 C         1.865888         0.791687        -1.509890
 O         4.739919         0.299416        -0.799135
 C         4.604839        -1.085303        -0.296017
 C         3.131852        -1.121929        -0.811030
 O         1.935176        -1.430197        -0.313276
 H        -0.819446        -0.149573        -0.433864
 H        -0.283641        -0.873563         1.039607
 H        -0.260563         0.923236         0.742842
 H         2.258731         1.724004         0.755347
 H         2.735434        -0.135523         1.384036
 H         1.578345         1.822822        -1.547388
 H         1.529853         0.221612        -2.440009
 H         5.359998        -1.777923        -0.610071
 H         4.673058        -1.027405         0.844475
 H         3.120043        -1.364295        -1.926118
