19
Iteration:  4434charge 0 multiplicity 1
 C        -0.044713         0.024173         0.362556
 C         1.313416         0.019079        -0.247834
 C         2.417077         0.484371         0.589292
 C         3.230043         0.366605        -0.771634
 C         1.931670         0.843262        -1.500104
 O         4.702917         0.297006        -0.805716
 C         4.609181        -1.026013        -0.249595
 C         3.163961        -1.122415        -0.886056
 O         1.881388        -1.414738        -0.317915
 H        -0.932021         0.195508        -0.242805
 H        -0.100473        -0.933043         0.868755
 H        -0.109331         0.863080         1.079892
 H         2.595862         1.481916         0.926875
 H         2.676157        -0.211076         1.347141
 H         1.847451         1.854482        -1.796832
 H         1.726625         0.166990        -2.332304
 H         5.362828        -1.641083        -0.671189
 H         4.451763        -1.039263         0.847814
 H         3.253852        -1.496361        -1.870909
