19
Iteration:  1989
 C        -0.045877        -0.044828         0.358003
 C         1.357897        -0.017985        -0.204235
 C         2.483955         0.523276         0.650980
 C         3.252166         0.407110        -0.741841
 C         1.973901         0.925890        -1.426775
 O         4.802334         0.290863        -0.679663
 C         4.502433        -1.155430        -0.373878
 C         3.134617        -1.117778        -1.027615
 O         1.812166        -1.337911        -0.412398
 H        -0.190616        -0.993534         0.903002
 H        -0.217759         0.639568         1.232967
 H        -0.964125         0.051589        -0.353452
 H         2.310983         1.526535         0.977360
 H         2.665501        -0.150704         1.425722
 H         1.786616         1.994041        -1.370012
 H         1.722209         0.357756        -2.403823
 H         5.369726        -1.714275        -0.686221
 H         4.412020        -1.281281         0.723257
 H         2.940618        -1.490621        -2.054844
