19
Iteration:   179
 C        -0.145638        -0.065337         0.336406
 C         1.355837         0.072079        -0.196412
 C         2.645617         0.622141         0.673737
 C         3.295290         0.378795        -0.639865
 C         1.919275         0.856738        -1.337290
 O         4.737404         0.322390        -0.688769
 C         4.565467        -1.209834        -0.455995
 C         3.094255        -1.163981        -0.958523
 O         1.774877        -1.357095        -0.510705
 H        -0.249942        -1.147187         0.562275
 H        -0.246937         0.528075         1.272507
 H        -0.993310         0.077393        -0.339475
 H         2.537675         1.708276         0.978075
 H         2.917277        -0.075377         1.517583
 H         1.862285         1.995568        -1.252841
 H         1.699352         0.395106        -2.326395
 H         5.276190        -1.722050        -1.109994
 H         4.707185        -1.394083         0.618640
 H         3.101769        -1.269212        -2.054716
