19
Iteration:  4586
 C        -0.032215         0.071622         0.355979
 C         1.354589        -0.111220        -0.179338
 C         2.506063         0.508495         0.615812
 C         3.258532         0.365064        -0.772081
 C         1.960381         0.832480        -1.441607
 O         4.682691         0.340280        -0.786034
 C         4.510756        -1.044250        -0.246907
 C         3.113514        -1.101859        -0.957439
 O         1.892123        -1.440382        -0.423350
 H        -0.770545        -0.417952        -0.234285
 H        -0.153896        -0.440772         1.288897
 H        -0.306320         1.112140         0.643825
 H         2.321915         1.628365         0.675102
 H         2.851947        -0.035027         1.480066
 H         1.515198         1.804585        -1.337570
 H         1.786828         0.466286        -2.425123
 H         5.341595        -1.685725        -0.425334
 H         4.413907        -1.062975         0.891955
 H         3.315205        -1.588630        -1.966930
