19
Iteration:  3109charge 0 multiplicity 1
 C        -0.135643        -0.046101         0.404603
 C         1.344029        -0.021717        -0.162972
 C         2.502588         0.502950         0.536841
 C         3.273744         0.397141        -0.782168
 C         1.885134         0.839195        -1.511021
 O         4.858991         0.325936        -0.709181
 C         4.632069        -1.021677        -0.261428
 C         3.118586        -1.108942        -0.969841
 O         1.753462        -1.395274        -0.409651
 H        -0.104624        -0.929461         1.106663
 H        -0.409701         0.896156         0.909073
 H        -0.777440        -0.162490        -0.437996
 H         2.520639         1.450321         1.167703
 H         2.646255        -0.184544         1.391949
 H         1.700395         1.884118        -1.332942
 H         1.658075         0.342454        -2.464752
 H         5.533824        -1.605613        -0.534549
 H         4.405995        -1.087264         0.805755
 H         3.154034        -1.556185        -2.022904
