19
Iteration:  3354
 C        -0.096443        -0.014174         0.071192
 C         1.358650        -0.084433        -0.201141
 C         2.517579         0.754652         0.665719
 C         3.201048         0.274360        -0.728019
 C         1.951506         0.744760        -1.259340
 O         4.659516         0.370816        -0.874772
 C         4.666827        -1.067738        -0.391057
 C         3.131370        -1.172593        -0.866586
 O         1.859190        -1.427945        -0.149392
 H        -0.527744         0.402352        -0.854806
 H        -0.413421        -0.948161         0.306659
 H        -0.285181         0.743138         0.842148
 H         2.286659         1.753403         0.455068
 H         2.715181         0.338957         1.661026
 H         1.777745         1.845345        -1.201370
 H         1.549901         0.422799        -2.157115
 H         5.326924        -1.659908        -1.092524
 H         4.897477        -1.261440         0.629316
 H         3.176869        -1.519504        -1.941061
