19
Iteration:  3093
 C         0.016917        -0.013281         0.311692
 C         1.380911        -0.024855        -0.231045
 C         2.550527         0.521876         0.639996
 C         3.211169         0.324143        -0.743040
 C         1.905910         0.862009        -1.388272
 O         4.654690         0.368953        -0.764961
 C         4.559945        -1.065037        -0.238926
 C         3.181499        -1.147402        -0.907821
 O         1.784753        -1.423373        -0.473046
 H        -0.009439        -0.619089         1.207050
 H        -0.294916         1.033356         0.475472
 H        -0.755165        -0.509573        -0.334556
 H         2.432694         1.588732         0.844257
 H         2.963353         0.041415         1.527543
 H         1.638730         1.937208        -1.300205
 H         1.661677         0.667085        -2.443986
 H         5.280549        -1.760001        -0.703552
 H         4.644078        -1.060053         0.861123
 H         3.291325        -1.514635        -1.900451
