19
Iteration:  4321
 C        -0.153954         0.072117         0.098726
 C         1.312945        -0.040223        -0.041768
 C         2.579998         0.637575         0.667678
 C         3.269647         0.302543        -0.618240
 C         1.822663         0.727969        -1.374163
 O         4.693685         0.355557        -0.843024
 C         4.677407        -1.121515        -0.450698
 C         3.165487        -1.100086        -0.826674
 O         1.880835        -1.435444        -0.301317
 H        -0.661586        -0.809817        -0.323275
 H        -0.402120         0.050972         1.149881
 H        -0.586534         0.844555        -0.497634
 H         2.363821         1.701650         0.863999
 H         2.827393         0.248248         1.682697
 H         1.794078         1.830700        -1.400969
 H         1.550924         0.362603        -2.334412
 H         5.277151        -1.699039        -1.241754
 H         4.999330        -1.212102         0.597990
 H         3.127385        -1.358457        -1.896897
