19
Iteration:  2537charge 0 multiplicity 1
 C        -0.208388         0.078323         0.126830
 C         1.255110         0.107935        -0.149407
 C         2.506221         0.467868         0.702487
 C         3.246994         0.342983        -0.653485
 C         1.890400         0.902203        -1.341608
 O         4.702972         0.326701        -0.813609
 C         4.743845        -1.161868        -0.434088
 C         3.185710        -1.150494        -0.904990
 O         1.909554        -1.492869        -0.305601
 H        -0.437180         0.204633         1.194528
 H        -0.713974         0.982368        -0.294472
 H        -0.731973        -0.770922        -0.192977
 H         2.431993         1.607639         0.918201
 H         2.875281        -0.017436         1.627147
 H         1.923363         1.967584        -1.227165
 H         1.446262         0.589197        -2.279795
 H         5.385323        -1.742998        -1.061764
 H         4.988471        -1.186102         0.649963
 H         3.166054        -1.598809        -1.832649
