19
Iteration:  4943
 C        -0.129798         0.047986         0.173048
 C         1.298105        -0.008071        -0.193581
 C         2.506189         0.529176         0.649792
 C         3.265860         0.300303        -0.744135
 C         1.854576         0.857178        -1.404300
 O         4.743123         0.322543        -0.769891
 C         4.665766        -1.092623        -0.267071
 C         3.162679        -1.180683        -0.938209
 O         1.884542        -1.373999        -0.299551
 H        -0.827632        -0.411328        -0.520325
 H        -0.098811        -0.598557         1.084645
 H        -0.529899         1.146789         0.448336
 H         2.583342         1.642240         0.911450
 H         2.686919        -0.042212         1.559022
 H         1.396070         1.906470        -1.437269
 H         1.728310         0.449634        -2.445896
 H         5.450448        -1.681173        -0.826117
 H         4.409703        -1.065835         0.798367
 H         3.253346        -1.538749        -2.024731
