19
Iteration:   354charge 0 multiplicity 1
 C        -0.132561         0.050882         0.302841
 C         1.283629        -0.007592        -0.172767
 C         2.582034         0.393579         0.643770
 C         3.285669         0.296814        -0.731393
 C         2.011906         0.914294        -1.226562
 O         4.733476         0.343761        -0.838848
 C         4.649505        -1.048321        -0.306825
 C         3.116200        -1.163614        -0.963869
 O         1.723322        -1.402503        -0.515520
 H        -0.270305        -0.727313         0.998697
 H        -0.317683         0.973518         0.968323
 H        -0.814601         0.112789        -0.572326
 H         2.396906         1.385428         1.199434
 H         2.686657        -0.366436         1.496886
 H         1.984482         2.031981        -1.113723
 H         1.785190         0.930562        -2.250292
 H         5.510223        -1.587156        -0.647466
 H         4.556702        -1.201010         0.801542
 H         3.184873        -1.424196        -2.024037
