19
Iteration:  4922
 C        -0.017266        -0.040835         0.287183
 C         1.377101        -0.053266        -0.171690
 C         2.569790         0.678791         0.541217
 C         3.244692         0.361441        -0.796423
 C         1.905541         0.818989        -1.446426
 O         4.699954         0.285547        -0.717491
 C         4.552552        -1.101651        -0.210697
 C         3.150671        -1.079701        -0.851227
 O         1.799569        -1.452418        -0.428962
 H        -0.639416        -0.016835        -0.610509
 H        -0.360203        -0.932275         0.854151
 H        -0.357942         0.973285         0.755969
 H         2.263078         1.689137         0.917908
 H         2.919017         0.253769         1.478835
 H         1.685432         1.921900        -1.228035
 H         1.497020         0.492535        -2.437177
 H         5.245124        -1.631489        -0.893327
 H         4.509234        -1.203031         0.880801
 H         3.421430        -1.462758        -1.859019
