19
Iteration:  1832charge 0 multiplicity 1
 C        -0.018707        -0.024305         0.331277
 C         1.389395        -0.008641        -0.147634
 C         2.460175         0.562440         0.625847
 C         3.227265         0.355306        -0.698096
 C         1.987798         0.917518        -1.363284
 O         4.689637         0.311710        -0.714704
 C         4.556601        -1.104408        -0.364541
 C         3.188073        -1.184366        -0.985508
 O         1.773637        -1.434713        -0.482792
 H        -0.182814        -0.823651         1.141108
 H        -0.219558         1.049844         0.803659
 H        -0.763729        -0.142529        -0.441045
 H         2.468601         1.660560         0.773550
 H         2.736983         0.028506         1.567060
 H         1.696957         1.897560        -0.930813
 H         2.072592         1.089074        -2.428675
 H         5.345561        -1.680125        -0.894622
 H         4.579868        -1.528921         0.631894
 H         2.934100        -1.325600        -2.101919
