19
Iteration:  1875
 C        -0.196727         0.025115         0.165548
 C         1.342862         0.021610        -0.131781
 C         2.557847         0.532787         0.795161
 C         3.252020         0.376331        -0.636993
 C         1.923919         0.855394        -1.370179
 O         4.760618         0.309386        -0.735940
 C         4.603114        -1.204050        -0.524522
 C         3.085929        -1.062477        -0.976685
 O         1.873726        -1.390194        -0.362732
 H        -0.369523        -0.237158         1.264620
 H        -0.751169         1.008238        -0.117220
 H        -0.467679        -0.789170        -0.461885
 H         2.568486         1.534021         1.328338
 H         2.780645        -0.236919         1.622493
 H         1.770376         1.890876        -1.081293
 H         1.614803         0.516621        -2.339313
 H         5.326289        -1.845634        -1.109178
 H         4.879256        -1.411743         0.516668
 H         3.242665        -1.245577        -2.148062
