19
Iteration:  1747
 C        -0.126313        -0.025416         0.129989
 C         1.364522         0.010599        -0.166182
 C         2.493901         0.461765         0.716670
 C         3.274093         0.374368        -0.618241
 C         1.972787         1.001228        -1.309720
 O         4.710994         0.313199        -0.731401
 C         4.600939        -1.150030        -0.549853
 C         3.038973        -1.161941        -0.992821
 O         1.893322        -1.408292        -0.263750
 H        -0.164209        -0.623123         1.036691
 H        -0.412613         1.081288         0.433463
 H        -0.846441        -0.391534        -0.587532
 H         2.319073         1.496529         0.965646
 H         2.715306        -0.089790         1.624830
 H         1.797701         2.140285        -1.090352
 H         1.850754         0.585608        -2.368892
 H         5.297448        -1.609409        -1.323973
 H         4.771644        -1.508918         0.514347
 H         3.147041        -1.263825        -2.053076
