19
Iteration:  3413
 C         0.047467        -0.039109         0.293843
 C         1.344524        -0.029572        -0.208103
 C         2.514892         0.679337         0.551541
 C         3.220252         0.299179        -0.736791
 C         1.884003         0.842648        -1.358060
 O         4.727136         0.365565        -0.779150
 C         4.658853        -1.036343        -0.242335
 C         3.082517        -1.189290        -0.939252
 O         1.763664        -1.478258        -0.394387
 H        -0.588529        -0.805964        -0.232542
 H        -0.209839        -0.349913         1.383153
 H        -0.380585         0.965148         0.184657
 H         2.411773         1.782314         0.698777
 H         2.803771         0.354414         1.552926
 H         1.640956         1.891537        -1.255439
 H         1.674722         0.461735        -2.444705
 H         5.473303        -1.644940        -0.652433
 H         4.669306        -1.140571         0.869223
 H         3.190649        -1.611282        -1.920243
