19
Iteration:  3635charge 0 multiplicity 1
 C        -0.152559        -0.046361         0.242281
 C         1.250858         0.048503        -0.249521
 C         2.537469         0.675822         0.620890
 C         3.227101         0.380033        -0.663936
 C         1.842831         0.828573        -1.411462
 O         4.743128         0.257415        -0.767101
 C         4.695705        -1.141285        -0.394908
 C         3.178174        -1.139297        -0.905251
 O         1.873455        -1.403503        -0.270869
 H        -0.727542        -0.881951        -0.291888
 H        -0.073935        -0.332098         1.272402
 H        -0.785309         0.885273         0.179828
 H         2.431588         1.700473         0.936209
 H         2.907132         0.156449         1.516596
 H         1.619950         1.930356        -1.307447
 H         1.749851         0.516708        -2.458914
 H         5.255331        -1.829928        -1.044192
 H         5.031273        -1.208613         0.606150
 H         3.341240        -1.447121        -1.914535
