19
Iteration:  4322charge 0 multiplicity 1
 C        -0.148131         0.066153         0.093461
 C         1.319351        -0.038878        -0.045057
 C         2.578102         0.645841         0.672298
 C         3.267465         0.303465        -0.611237
 C         1.821311         0.736988        -1.373053
 O         4.685322         0.355596        -0.845352
 C         4.683875        -1.124071        -0.450367
 C         3.160431        -1.108796        -0.831279
 O         1.881325        -1.438730        -0.302536
 H        -0.671332        -0.802877        -0.325600
 H        -0.393663         0.074175         1.157770
 H        -0.571999         0.859217        -0.490284
 H         2.363307         1.686117         0.854366
 H         2.824586         0.268317         1.683367
 H         1.799903         1.824350        -1.387980
 H         1.544570         0.342125        -2.328204
 H         5.283798        -1.706337        -1.225210
 H         5.016607        -1.212976         0.593381
 H         3.121195        -1.348909        -1.874510
