19
Iteration:   297
 C        -0.175725        -0.021546         0.176182
 C         1.311030        -0.063980        -0.134577
 C         2.492282         0.584355         0.821542
 C         3.240351         0.392550        -0.588590
 C         1.994005         1.049243        -1.367112
 O         4.760942         0.190299        -0.715460
 C         4.612421        -1.198015        -0.600145
 C         3.116674        -1.021582        -1.069463
 O         1.878354        -1.440584        -0.297815
 H        -0.125782        -0.300438         1.271878
 H        -0.656455         0.930871        -0.084994
 H        -0.799535        -0.784182        -0.275172
 H         2.324307         1.689301         0.891136
 H         2.690848        -0.086267         1.718073
 H         1.799819         2.066008        -1.011842
 H         2.067563         0.676810        -2.320623
 H         5.313082        -1.649381        -1.349693
 H         4.686858        -1.649125         0.406258
 H         2.951797        -1.120854        -2.139803
