19
Iteration:  1968
 C         0.015810         0.018643         0.363086
 C         1.377587        -0.006821        -0.245605
 C         2.551008         0.628892         0.633516
 C         3.209198         0.317465        -0.661286
 C         1.960077         0.944447        -1.379747
 O         4.604063         0.295019        -0.651938
 C         4.508939        -1.193030        -0.356619
 C         3.112853        -1.075089        -1.019444
 O         1.895822        -1.487635        -0.480197
 H        -0.199567        -0.903274         0.948480
 H        -0.322906         0.803421         1.033214
 H        -0.720096        -0.046009        -0.538246
 H         2.555112         1.692550         0.728818
 H         2.942852         0.157662         1.472370
 H         1.626418         1.944662        -1.090002
 H         1.832243         0.646166        -2.493788
 H         5.193020        -1.873993        -0.872948
 H         4.673995        -1.235775         0.733598
 H         3.163266        -1.297123        -2.074239
