19
Iteration:   760
 C        -0.149430         0.150653         0.215877
 C         1.317968         0.077688        -0.141030
 C         2.496072         0.408053         0.757349
 C         3.237973         0.268709        -0.688978
 C         1.955754         0.887176        -1.244770
 O         4.687975         0.371794        -0.833065
 C         4.587907        -1.101201        -0.452568
 C         3.173221        -1.165316        -0.938927
 O         1.934950        -1.505658        -0.405578
 H        -0.599038        -0.680183         0.626144
 H        -0.243872         0.982932         0.830300
 H        -0.527498         0.252173        -0.850425
 H         2.295167         1.565129         0.829735
 H         2.640806        -0.371590         1.590412
 H         1.707985         1.914721        -0.844894
 H         1.617108         0.724514        -2.249509
 H         5.404418        -1.612586        -1.061080
 H         4.731121        -1.240480         0.609364
 H         3.147444        -1.283117        -2.004294
