19
Iteration:  1288charge 0 multiplicity 1
 C        -0.115933         0.123172         0.231164
 C         1.272139        -0.020306        -0.117589
 C         2.503941         0.375120         0.730314
 C         3.259417         0.352477        -0.695173
 C         2.019773         0.911297        -1.268103
 O         4.726102         0.350583        -0.802740
 C         4.603960        -1.097723        -0.387906
 C         3.100152        -1.119064        -1.036533
 O         1.857843        -1.450007        -0.414015
 H        -0.238213        -0.023455         1.322808
 H        -0.699443         1.046779        -0.257037
 H        -0.714592        -0.692579        -0.202061
 H         2.494779         1.454607         1.027090
 H         2.964443        -0.246662         1.559561
 H         1.854893         1.937455        -1.019080
 H         1.778059         0.788630        -2.306055
 H         5.275250        -1.736075        -0.929376
 H         4.554752        -1.348631         0.670527
 H         3.236659        -1.465844        -2.132930
