19
Iteration:  3827
 C        -0.133844         0.034896         0.130707
 C         1.307224        -0.039257        -0.142160
 C         2.460252         0.514569         0.702642
 C         3.223612         0.318809        -0.757922
 C         1.964025         0.860987        -1.465504
 O         4.676741         0.322404        -0.883464
 C         4.738454        -1.071156        -0.419366
 C         3.125136        -1.130149        -0.826087
 O         1.912182        -1.388737        -0.121712
 H        -0.873525        -0.499614        -0.451854
 H        -0.523653        -0.335305         1.164136
 H        -0.700161         0.997940        -0.242607
 H         2.427503         1.577839         1.069936
 H         2.673624        -0.188275         1.611430
 H         1.833537         1.960103        -1.180260
 H         1.813274         0.519024        -2.472837
 H         5.288804        -1.630028        -1.114262
 H         5.018728        -1.359825         0.655868
 H         2.975988        -1.420624        -1.877860
