19
Iteration:  3854charge 0 multiplicity 1
 C        -0.099338         0.059140         0.057985
 C         1.363481        -0.049072        -0.135443
 C         2.536154         0.691460         0.750206
 C         3.248752         0.352675        -0.575736
 C         1.928862         0.738457        -1.347164
 O         4.659355         0.351885        -0.890852
 C         4.658047        -1.086633        -0.496304
 C         3.115673        -1.151050        -0.829863
 O         1.878696        -1.476446        -0.245798
 H        -0.712534        -0.805171        -0.273086
 H        -0.515749         0.128211         1.026873
 H        -0.640271         0.808809        -0.392605
 H         2.372212         1.744259         0.915955
 H         2.725650         0.214018         1.671370
 H         1.659335         1.754604        -1.256718
 H         1.831655         0.179646        -2.310843
 H         5.333476        -1.774095        -1.140756
 H         4.842384        -1.277867         0.580349
 H         3.049785        -1.216723        -1.971455
