19
Iteration:  4783charge 0 multiplicity 1
 C        -0.056097        -0.100353         0.219188
 C         1.340387         0.135471        -0.181289
 C         2.507974         0.667668         0.704292
 C         3.239605         0.339522        -0.696581
 C         1.965475         0.779364        -1.430768
 O         4.660960         0.315327        -0.737633
 C         4.654538        -1.118142        -0.385210
 C         3.115625        -1.173630        -0.912104
 O         1.822927        -1.393120        -0.381228
 H        -0.487838        -1.048607        -0.076432
 H        -0.080599        -0.048557         1.335939
 H        -0.696413         0.752496        -0.174750
 H         2.632046         1.767706         1.112580
 H         2.677184         0.058265         1.674378
 H         1.833917         1.886685        -1.394121
 H         1.695046         0.352313        -2.415503
 H         5.369426        -1.777329        -0.966166
 H         4.646089        -1.142885         0.745937
 H         3.027685        -1.487933        -2.010205
