19
Iteration:    82charge 0 multiplicity 1
 C        -0.177980         0.092352         0.223332
 C         1.339928        -0.006733        -0.160711
 C         2.622119         0.413861         0.701400
 C         3.217190         0.311069        -0.625245
 C         1.916460         0.933051        -1.224914
 O         4.692107         0.297780        -0.843912
 C         4.680678        -1.059159        -0.416279
 C         3.147942        -1.123869        -0.970471
 O         1.805795        -1.455274        -0.460549
 H        -0.209060         0.015687         1.373486
 H        -0.483482         1.157409         0.002502
 H        -0.880487        -0.750901        -0.036360
 H         2.485023         1.440472         1.087651
 H         2.974287        -0.186661         1.557929
 H         1.701902         2.058591        -1.119403
 H         1.702540         0.653143        -2.297542
 H         5.496905        -1.625558        -0.924843
 H         4.639071        -1.206511         0.695901
 H         3.219651        -1.343868        -2.059014
