19
Iteration:  4158charge 0 multiplicity 1
 C        -0.157798        -0.060089         0.113410
 C         1.362420         0.003307        -0.109185
 C         2.499659         0.604969         0.702679
 C         3.249357         0.428532        -0.714606
 C         1.950206         0.757595        -1.434155
 O         4.711049         0.293871        -0.861665
 C         4.723594        -1.094130        -0.447332
 C         3.058004        -1.101979        -0.825464
 O         1.854845        -1.379293        -0.179602
 H        -0.666917        -0.437393        -0.894430
 H        -0.404621        -0.732069         1.033680
 H        -0.503330         1.030705         0.178809
 H         2.269382         1.719185         1.022865
 H         2.833575         0.065035         1.670599
 H         1.573795         1.829527        -1.255992
 H         1.687315         0.317678        -2.412669
 H         5.474965        -1.674162        -1.124318
 H         4.909939        -1.280309         0.609644
 H         3.118610        -1.503905        -1.844746
