19
Iteration:  3819charge 0 multiplicity 1
 C        -0.208222         0.005913         0.160648
 C         1.344417        -0.083396        -0.149981
 C         2.557827         0.619972         0.662673
 C         3.217805         0.292681        -0.695304
 C         2.000864         0.883402        -1.440691
 O         4.650549         0.329558        -0.847163
 C         4.676447        -1.058479        -0.431669
 C         3.132651        -1.190000        -0.839937
 O         1.870632        -1.406798        -0.184963
 H        -0.725403        -0.576306        -0.608069
 H        -0.285078        -0.438182         1.115587
 H        -0.456977         1.089626         0.127768
 H         2.521153         1.668514         0.944151
 H         2.677398        -0.027759         1.506840
 H         1.803574         1.953666        -1.338182
 H         1.727249         0.654950        -2.504058
 H         5.403675        -1.683455        -0.993520
 H         4.924001        -0.968601         0.680127
 H         2.979752        -1.656389        -1.858648
