19
Iteration:  4379
 C        -0.172668        -0.022856         0.232247
 C         1.339224         0.033799        -0.183890
 C         2.603905         0.652998         0.655733
 C         3.259754         0.411104        -0.735853
 C         1.839679         0.775695        -1.476056
 O         4.707599         0.267410        -0.801629
 C         4.612243        -1.103527        -0.311951
 C         3.162758        -1.110836        -0.896441
 O         1.870189        -1.384891        -0.292778
 H        -0.659823        -0.575805        -0.545763
 H        -0.145321        -0.766950         1.041567
 H        -0.639392         0.785117         0.739608
 H         2.649815         1.637485         1.033763
 H         2.775193        -0.118013         1.372167
 H         1.545487         1.790444        -1.413884
 H         1.806768         0.384264        -2.505039
 H         5.359864        -1.702117        -0.787522
 H         4.699363        -1.274987         0.784818
 H         3.195126        -1.486095        -1.874188
