19
Iteration:   953charge 0 multiplicity 1
 C        -0.152731        -0.111272         0.188565
 C         1.330315         0.038572        -0.086494
 C         2.560039         0.575874         0.758111
 C         3.311780         0.358981        -0.665864
 C         2.003388         0.994639        -1.270800
 O         4.752342         0.277084        -0.786995
 C         4.579571        -1.224222        -0.488237
 C         3.065067        -1.073171        -0.929954
 O         1.786112        -1.386145        -0.414704
 H        -0.239511        -1.081563         0.659800
 H        -0.483767         0.670837         0.870329
 H        -0.528141        -0.048884        -0.881510
 H         2.377028         1.623948         0.857472
 H         2.741776         0.023804         1.699390
 H         1.752087         2.116903        -1.323538
 H         1.637525         0.687015        -2.291093
 H         5.287688        -1.705229        -1.157418
 H         4.961584        -1.571580         0.514510
 H         3.079161        -1.258286        -2.039231
