19
Iteration:   610charge 0 multiplicity 1
 C        -0.062688         0.063215         0.187605
 C         1.392019        -0.039865        -0.170354
 C         2.480505         0.445618         0.740752
 C         3.209682         0.383159        -0.587065
 C         2.004350         0.881229        -1.273774
 O         4.628242         0.285611        -0.916180
 C         4.684783        -1.078255        -0.429503
 C         3.110712        -1.095581        -0.894484
 O         1.800188        -1.437702        -0.384736
 H        -0.534252        -0.732839         0.914296
 H        -0.100255         1.084182         0.661933
 H        -0.566854         0.206922        -0.842119
 H         2.392528         1.393813         1.291737
 H         2.830392        -0.355712         1.425017
 H         1.789279         1.944975        -0.955509
 H         1.857433         0.778667        -2.330654
 H         5.334551        -1.744266        -1.143484
 H         4.819863        -1.228899         0.688954
 H         3.056225        -1.208263        -2.035045
