19
Iteration:   705
 C        -0.097903        -0.079462         0.332617
 C         1.332236         0.075893        -0.189758
 C         2.496515         0.610177         0.741825
 C         3.205683         0.322038        -0.638556
 C         1.949154         0.936884        -1.294640
 O         4.722338         0.237181        -0.754461
 C         4.625437        -1.229521        -0.393139
 C         3.171626        -1.099024        -1.065011
 O         1.822904        -1.341225        -0.518168
 H         0.064750        -0.454664         1.274417
 H        -0.564794         0.846059         0.384259
 H        -0.687520        -0.842839        -0.239315
 H         2.367214         1.702176         1.023393
 H         2.744384         0.170292         1.744164
 H         1.720623         1.995302        -1.223659
 H         1.674170         0.528599        -2.268448
 H         5.401865        -1.621387        -1.040818
 H         4.691572        -1.423959         0.647866
 H         3.240371        -1.255134        -2.124374
