19
Iteration:  2649
 C        -0.090741        -0.015048         0.297633
 C         1.338447         0.005884        -0.234854
 C         2.528604         0.534136         0.639086
 C         3.203690         0.357542        -0.670507
 C         1.921542         0.804747        -1.484182
 O         4.742239         0.306092        -0.800539
 C         4.564433        -1.102610        -0.297929
 C         3.164713        -1.060978        -0.927622
 O         1.848392        -1.358671        -0.326388
 H        -0.261712        -1.033522         0.617934
 H        -0.242492         0.653034         1.153495
 H        -0.822748         0.129258        -0.552065
 H         2.579547         1.597410         0.923551
 H         2.696583        -0.118686         1.524256
 H         1.552977         1.855909        -1.454137
 H         1.877746         0.357461        -2.500007
 H         5.395224        -1.667573        -0.730160
 H         4.561541        -1.294235         0.808498
 H         3.215833        -1.492918        -1.880525
