19
Iteration:  3243
 C        -0.029054        -0.063247         0.289145
 C         1.314181         0.062407        -0.228054
 C         2.466230         0.609288         0.619808
 C         3.215634         0.386988        -0.772166
 C         1.853930         0.772844        -1.515561
 O         4.749469         0.289262        -0.785557
 C         4.608288        -1.072984        -0.287594
 C         3.133133        -1.109110        -0.834698
 O         1.923920        -1.411590        -0.307081
 H        -0.806207        -0.107756        -0.398664
 H        -0.263601        -0.862600         0.998917
 H        -0.147104         0.938155         0.796892
 H         2.265370         1.672547         0.822791
 H         2.735038        -0.131289         1.379886
 H         1.583465         1.819408        -1.516727
 H         1.566200         0.204937        -2.401918
 H         5.329855        -1.779759        -0.600115
 H         4.667921        -1.013315         0.828047
 H         3.122337        -1.391953        -1.937849
