19
Iteration:   546charge 0 multiplicity 1
 C         0.020538        -0.099808         0.344452
 C         1.357823         0.041337        -0.190963
 C         2.430338         0.602553         0.725529
 C         3.288992         0.370193        -0.613319
 C         1.902974         0.956003        -1.378082
 O         4.799060         0.254168        -0.754631
 C         4.541336        -1.225220        -0.434326
 C         3.100356        -1.076674        -0.974825
 O         1.802769        -1.375035        -0.474328
 H        -0.377215        -0.921728         1.018147
 H        -0.120939         0.904705         0.827489
 H        -0.618356        -0.168548        -0.516715
 H         2.316743         1.655130         0.941397
 H         2.648755        -0.050575         1.558209
 H         1.511357         2.029700        -1.228893
 H         1.811696         0.679367        -2.435051
 H         5.198880        -1.776169        -1.134288
 H         4.656533        -1.371128         0.667585
 H         3.208239        -1.443432        -2.036346
