19
Iteration:  1690
 C        -0.079561         0.005286         0.244142
 C         1.360918        -0.039825        -0.129793
 C         2.503889         0.480511         0.718535
 C         3.275453         0.307766        -0.695303
 C         1.974144         0.938258        -1.250865
 O         4.734703         0.339146        -0.781931
 C         4.556897        -1.125204        -0.424493
 C         3.141176        -1.157002        -1.011750
 O         1.792152        -1.364811        -0.463205
 H        -0.175111        -0.173965         1.419914
 H        -0.669832         0.908751        -0.020834
 H        -0.689408        -0.814152        -0.123266
 H         2.470530         1.543741         1.062196
 H         2.599976        -0.261026         1.530492
 H         1.727249         2.028830        -0.945587
 H         1.729370         1.003712        -2.370826
 H         5.446945        -1.736314        -0.867567
 H         4.624199        -1.241146         0.673474
 H         3.282761        -1.342486        -2.106127
