19
Iteration:  3316
 C        -0.140757         0.017283         0.190093
 C         1.320209        -0.028308        -0.189844
 C         2.507665         0.527526         0.620418
 C         3.272454         0.399621        -0.723026
 C         1.893376         0.712884        -1.472536
 O         4.754373         0.355719        -0.911982
 C         4.606634        -1.014217        -0.276735
 C         3.154344        -1.089691        -0.835147
 O         1.839364        -1.409072        -0.201520
 H        -0.902570         0.423627        -0.496683
 H        -0.648405        -0.991098         0.505503
 H        -0.160286         0.545852         1.140950
 H         2.564549         1.574798         1.125482
 H         2.854063        -0.241131         1.343357
 H         1.805890         1.778241        -1.558280
 H         1.838252         0.098708        -2.449164
 H         5.309571        -1.689702        -0.784536
 H         4.945486        -1.004183         0.804863
 H         3.096421        -1.513666        -1.833619
