19
Iteration:  1723
 C        -0.128120        -0.000721         0.153632
 C         1.402794        -0.030182        -0.097548
 C         2.549228         0.557860         0.746390
 C         3.257776         0.457767        -0.572880
 C         1.926569         0.880700        -1.339877
 O         4.710703         0.296350        -0.700464
 C         4.623817        -1.191630        -0.597308
 C         3.100214        -1.081296        -0.949752
 O         1.815149        -1.392950        -0.376930
 H        -0.358405        -0.446168         1.241676
 H        -0.684658         0.980293        -0.099274
 H        -0.496903        -0.784505        -0.503733
 H         2.579015         1.536191         1.279931
 H         2.758578        -0.249133         1.473158
 H         1.670077         1.984958        -1.134422
 H         1.842711         0.390183        -2.367729
 H         5.120484        -1.893351        -1.373671
 H         4.687083        -1.558101         0.430919
 H         3.252238        -1.095598        -2.072855
