19
Iteration:   181charge 0 multiplicity 1
 C        -0.147768        -0.057821         0.342083
 C         1.342468         0.060026        -0.194179
 C         2.643762         0.602659         0.658819
 C         3.302408         0.367403        -0.633177
 C         1.937845         0.865143        -1.333045
 O         4.727556         0.339090        -0.693733
 C         4.559005        -1.218446        -0.449412
 C         3.096222        -1.154833        -0.959810
 O         1.775788        -1.359477        -0.513587
 H        -0.193790        -1.133146         0.570499
 H        -0.272336         0.557957         1.350519
 H        -1.070599         0.081613        -0.365631
 H         2.566618         1.726294         0.887906
 H         2.946881        -0.118407         1.488341
 H         1.896452         2.064133        -1.269413
 H         1.696205         0.338160        -2.292454
 H         5.274978        -1.722001        -1.086424
 H         4.733422        -1.348911         0.667309
 H         3.129826        -1.261061        -2.070330
