19
Iteration:  4527charge 0 multiplicity 1
 C        -0.180758        -0.041665         0.192221
 C         1.326568         0.002887        -0.095146
 C         2.522960         0.721186         0.711580
 C         3.192831         0.331657        -0.653339
 C         2.073727         0.865325        -1.450952
 O         4.651870         0.352185        -0.793761
 C         4.644652        -1.203699        -0.486012
 C         3.170677        -1.143966        -0.827026
 O         1.824869        -1.467798        -0.324611
 H        -0.535654        -1.009172        -0.241328
 H        -0.256814        -0.036659         1.299145
 H        -0.741294         0.681672        -0.330355
 H         2.567230         1.776669         0.885788
 H         2.860138         0.172986         1.646347
 H         1.886374         1.934036        -1.197698
 H         1.854378         0.587067        -2.508609
 H         5.355938        -1.598498        -1.207040
 H         4.812136        -1.211759         0.505402
 H         3.128376        -1.405588        -1.907167
