19
Iteration:  4921
 C        -0.017410        -0.040629         0.290584
 C         1.376180        -0.058996        -0.164973
 C         2.570233         0.681286         0.541470
 C         3.255405         0.365569        -0.799446
 C         1.911606         0.819185        -1.448698
 O         4.693349         0.283491        -0.718708
 C         4.554193        -1.101783        -0.205846
 C         3.147418        -1.077922        -0.849617
 O         1.797170        -1.453282        -0.431213
 H        -0.623607        -0.021900        -0.619361
 H        -0.340553        -0.934843         0.840704
 H        -0.368607         0.972890         0.793673
 H         2.248443         1.692313         0.893187
 H         2.905194         0.238371         1.467419
 H         1.663734         1.930236        -1.264421
 H         1.514156         0.494064        -2.431962
 H         5.241232        -1.620551        -0.897475
 H         4.492545        -1.213548         0.881409
 H         3.419867        -1.441496        -1.886001
