19
Iteration:  4760charge 0 multiplicity 1
 C        -0.086940        -0.042115         0.354654
 C         1.334589        -0.031058        -0.175902
 C         2.561957         0.547328         0.556592
 C         3.262819         0.428265        -0.731459
 C         1.839715         0.842479        -1.505190
 O         4.750812         0.290748        -0.688528
 C         4.534707        -1.178432        -0.276704
 C         3.196140        -1.056744        -0.933604
 O         1.861437        -1.354705        -0.411039
 H        -0.512771        -1.011965         0.149210
 H        -0.113988         0.052066         1.459407
 H        -0.743721         0.737873        -0.201088
 H         2.380838         1.666767         0.912454
 H         2.806787         0.160719         1.581908
 H         1.584851         1.927974        -1.569747
 H         1.676469         0.266635        -2.443374
 H         5.248312        -1.842564        -0.859091
 H         4.564876        -1.236122         0.852333
 H         3.171145        -1.388412        -2.009401
