19
Iteration:  3741charge 0 multiplicity 1
 C        -0.008586        -0.011915         0.395735
 C         1.349427        -0.028005        -0.232235
 C         2.506272         0.677071         0.581018
 C         3.197592         0.283326        -0.788584
 C         1.975760         0.832948        -1.515999
 O         4.610557         0.344867        -0.759692
 C         4.610606        -1.069424        -0.251965
 C         3.144928        -1.203955        -0.884553
 O         1.831641        -1.411536        -0.375177
 H        -0.667010        -0.180230        -0.404242
 H         0.031591        -0.836407         1.130864
 H         0.052006         0.934725         1.015952
 H         2.296176         1.749519         0.613345
 H         2.755918         0.174209         1.555608
 H         1.713478         1.939781        -1.370312
 H         1.812208         0.446998        -2.535163
 H         5.461398        -1.493530        -0.756972
 H         4.626592        -1.308800         0.917229
 H         3.094752        -1.696617        -1.912419
