19
Iteration:   981
 C        -0.089166        -0.010800         0.247622
 C         1.340632        -0.010126        -0.206875
 C         2.550536         0.452189         0.728005
 C         3.246832         0.345657        -0.684654
 C         1.958455         0.999070        -1.342191
 O         4.705431         0.323565        -0.755390
 C         4.564698        -1.205717        -0.412659
 C         3.112931        -1.089689        -0.977133
 O         1.829997        -1.390503        -0.401359
 H        -0.225899        -1.075729         0.595476
 H        -0.114583         0.747639         1.098073
 H        -0.759764         0.310173        -0.465604
 H         2.530902         1.541233         1.079834
 H         2.762593        -0.186250         1.612624
 H         1.707783         1.982510        -1.130006
 H         1.747549         0.812293        -2.421436
 H         5.392090        -1.708312        -0.965778
 H         4.617631        -1.404951         0.649840
 H         3.124257        -1.291121        -2.032115
