19
Iteration:  3286charge 0 multiplicity 1
 C        -0.018943        -0.008529         0.336967
 C         1.363335        -0.018104        -0.128050
 C         2.453063         0.758947         0.530548
 C         3.210603         0.329492        -0.761755
 C         1.931717         0.799079        -1.448162
 O         4.629239         0.277257        -0.782757
 C         4.577194        -1.009441        -0.198079
 C         3.162199        -1.152155        -0.915868
 O         1.872482        -1.524764        -0.391621
 H        -0.746911         0.341718        -0.310439
 H        -0.182237        -1.064843         0.614872
 H        -0.118106         0.538417         1.278603
 H         2.324576         1.811506         0.364764
 H         2.860432         0.286497         1.408943
 H         2.011423         1.875192        -1.555690
 H         1.695210         0.436765        -2.455938
 H         5.260545        -1.573280        -0.765218
 H         4.820740        -1.116587         0.907437
 H         3.460426        -1.547728        -1.943119
