19
Iteration:  2368charge 0 multiplicity 1
 C        -0.143985        -0.069396         0.117639
 C         1.441661         0.066623        -0.065746
 C         2.587424         0.634496         0.756770
 C         3.211273         0.338642        -0.647399
 C         2.062842         0.919910        -1.375534
 O         4.590015         0.296094        -0.767061
 C         4.554223        -1.209854        -0.447909
 C         3.128574        -1.107103        -0.929955
 O         1.854201        -1.433180        -0.387707
 H        -0.331534        -0.445666         1.115753
 H        -0.670940         0.940265         0.274736
 H        -0.671140        -0.859097        -0.564915
 H         2.269025         1.674519         0.872133
 H         2.935873         0.213715         1.691182
 H         1.986498         1.964642        -1.184989
 H         1.758933         0.590750        -2.406560
 H         5.173039        -1.895078        -1.060943
 H         4.844093        -1.314160         0.592052
 H         3.064591        -1.133918        -2.003318
