19
Iteration:  2705
 C        -0.087066         0.067995         0.060912
 C         1.372172        -0.003575        -0.123006
 C         2.534978         0.452680         0.755648
 C         3.201230         0.333583        -0.714310
 C         1.967285         0.778635        -1.385652
 O         4.732242         0.417818        -0.828135
 C         4.648914        -1.051408        -0.411465
 C         3.047037        -1.125303        -0.885072
 O         1.828596        -1.407459        -0.246525
 H        -0.320051        -0.668986         0.891535
 H        -0.505759         0.990367         0.384429
 H        -0.730621        -0.276242        -0.824027
 H         2.315965         1.332488         1.337759
 H         2.814837        -0.359286         1.467614
 H         1.885713         1.920460        -1.330372
 H         1.619770         0.202998        -2.260987
 H         5.376687        -1.543047        -1.131247
 H         4.806493        -1.177410         0.668760
 H         3.120565        -1.587426        -1.829469
