19
Iteration:  2778
 C        -0.111014        -0.001206         0.367284
 C         1.334948         0.070522        -0.253077
 C         2.494663         0.446800         0.651285
 C         3.253715         0.354923        -0.731248
 C         1.912141         0.820729        -1.456844
 O         4.676495         0.301771        -0.666825
 C         4.552978        -1.102610        -0.333317
 C         3.217624        -1.053177        -1.012900
 O         1.877393        -1.363454        -0.409513
 H         0.113344         0.137534         1.381793
 H        -0.945789         0.680060         0.020513
 H        -0.635780        -1.007361         0.266219
 H         2.519309         1.448083         1.192836
 H         3.086784        -0.125928         1.416201
 H         1.789322         1.857715        -1.391655
 H         1.748470         0.422079        -2.437380
 H         5.206266        -1.696170        -0.875449
 H         4.533703        -1.404615         0.724197
 H         3.429741        -1.327425        -2.111705
