19
Iteration:  2951
 C        -0.024105        -0.000765         0.282573
 C         1.385977        -0.039311        -0.150025
 C         2.572979         0.521018         0.640611
 C         3.215394         0.260308        -0.768026
 C         1.973245         0.795573        -1.309599
 O         4.654953         0.397572        -0.791918
 C         4.605015        -0.987017        -0.227605
 C         3.189993        -1.215314        -0.986994
 O         1.711537        -1.388673        -0.467625
 H        -0.129305        -0.910651         0.821924
 H        -0.223462         0.963583         0.914745
 H        -0.890739         0.146783        -0.430731
 H         2.461510         1.604802         0.576250
 H         2.985162         0.174246         1.573155
 H         1.853835         1.906626        -1.232473
 H         1.652518         0.612280        -2.421208
 H         5.486569        -1.563403        -0.495731
 H         4.260003        -1.130301         0.866003
 H         3.224713        -1.539402        -2.054360
