19
Iteration:  1629charge 0 multiplicity 1
 C        -0.117209         0.021821         0.289660
 C         1.369568        -0.011123        -0.113666
 C         2.505050         0.568223         0.649844
 C         3.238109         0.313324        -0.671507
 C         1.870746         0.931676        -1.305278
 O         4.739856         0.279254        -0.668774
 C         4.644772        -1.155047        -0.434291
 C         3.171163        -1.108853        -1.056570
 O         1.806555        -1.439210        -0.481413
 H        -0.211016        -0.858791         0.849388
 H        -0.267419         0.994454         0.946551
 H        -0.762365        -0.057469        -0.600320
 H         2.502538         1.655667         0.866501
 H         2.740615         0.162973         1.658528
 H         1.658224         1.974731        -1.018732
 H         1.721004         0.635471        -2.324775
 H         5.394678        -1.656348        -1.046963
 H         4.778598        -1.353917         0.667045
 H         3.085768        -1.239343        -2.152899
