19
Iteration:  1069
 C        -0.100766        -0.097002         0.167479
 C         1.414666         0.044558        -0.076273
 C         2.545171         0.507013         0.702037
 C         3.250060         0.363997        -0.604376
 C         2.054197         0.966094        -1.275490
 O         4.651783         0.278636        -0.745467
 C         4.530605        -1.230843        -0.494620
 C         3.041688        -1.044085        -0.951410
 O         1.856753        -1.338598        -0.434333
 H        -0.388972        -0.284608         1.221368
 H        -0.778803         0.814593         0.026371
 H        -0.395557        -0.859985        -0.448548
 H         2.494313         1.602176         0.963626
 H         2.931470        -0.316540         1.362356
 H         1.756423         1.949118        -1.221933
 H         2.064034         0.747291        -2.338302
 H         5.265149        -1.799737        -1.066400
 H         4.645206        -1.505764         0.553704
 H         3.011967        -1.077091        -2.038551
