19
Iteration:  2728charge 0 multiplicity 1
 C        -0.169980        -0.075454         0.156579
 C         1.360591         0.033316        -0.173272
 C         2.557664         0.598584         0.688064
 C         3.252424         0.309887        -0.679231
 C         1.951635         0.926291        -1.344045
 O         4.655329         0.289462        -0.816318
 C         4.666126        -1.125188        -0.406593
 C         3.115833        -1.100208        -0.879258
 O         1.882291        -1.399864        -0.316833
 H        -0.539833        -0.386585         1.189291
 H        -0.699516         0.825405        -0.077186
 H        -0.565424        -0.848511        -0.557462
 H         2.560470         1.592355         1.106933
 H         2.659959        -0.122758         1.500996
 H         1.670429         2.009467        -1.059537
 H         1.820275         0.559944        -2.389349
 H         5.412107        -1.833905        -0.938542
 H         4.639966        -1.101781         0.684554
 H         3.200953        -1.308640        -1.934077
