19
Iteration:  1705charge 0 multiplicity 1
 C        -0.136205        -0.026532         0.225734
 C         1.346459         0.050355        -0.123916
 C         2.539090         0.547707         0.796195
 C         3.235108         0.328451        -0.643690
 C         1.945566         0.918066        -1.247907
 O         4.686926         0.281922        -0.741234
 C         4.651027        -1.177021        -0.480443
 C         3.136478        -1.064792        -1.006610
 O         1.840263        -1.436746        -0.501285
 H        -0.333051        -0.056890         1.210330
 H        -0.560487         0.972528        -0.122133
 H        -0.481339        -0.826595        -0.415069
 H         2.480548         1.633611         0.796714
 H         2.961481         0.189745         1.735935
 H         1.773815         2.023811        -0.963964
 H         1.680237         0.532516        -2.260784
 H         5.261982        -1.738001        -1.203915
 H         4.797669        -1.392810         0.632378
 H         2.943977        -1.355128        -2.020059
