19
Iteration:  1687
 C        -0.076036        -0.001789         0.253500
 C         1.356416        -0.025639        -0.140225
 C         2.520262         0.453048         0.707757
 C         3.287649         0.310935        -0.690305
 C         1.968447         0.979031        -1.276797
 O         4.729381         0.334411        -0.789876
 C         4.545632        -1.131967        -0.402255
 C         3.146240        -1.154834        -0.999202
 O         1.792417        -1.371726        -0.460567
 H        -0.144897        -0.104392         1.412998
 H        -0.574672         0.902879         0.059323
 H        -0.727762        -0.853590        -0.153453
 H         2.331905         1.479715         1.131891
 H         2.647223        -0.360083         1.454424
 H         1.724120         1.945436        -1.005916
 H         1.767637         0.953330        -2.319061
 H         5.436432        -1.579674        -0.809467
 H         4.632473        -1.172037         0.661588
 H         3.147477        -1.337027        -2.120072
