19
Iteration:  2901
 C        -0.132628        -0.048931         0.231986
 C         1.307462         0.034054        -0.184388
 C         2.478963         0.591390         0.717304
 C         3.265946         0.373219        -0.648414
 C         1.901141         0.799465        -1.422628
 O         4.817714         0.305190        -0.763525
 C         4.669008        -1.125948        -0.441289
 C         3.094612        -1.118296        -0.921875
 O         1.851602        -1.369535        -0.324570
 H        -0.530358        -1.067047         0.550115
 H        -0.355125         0.741449         0.854857
 H        -0.743381         0.480562        -0.514292
 H         2.376477         1.660096         0.962017
 H         2.645539        -0.073599         1.673071
 H         1.350825         1.758120        -1.562046
 H         1.839336         0.252150        -2.326442
 H         5.382466        -1.788323        -0.991857
 H         4.822673        -1.302598         0.588311
 H         3.065383        -1.264836        -2.047354
