19
Iteration:    59
 C        -0.013678         0.018361         0.332186
 C         1.403445        -0.053946        -0.109845
 C         2.461538         0.511652         0.715837
 C         3.233210         0.343101        -0.713546
 C         2.024227         0.936431        -1.381709
 O         4.696407         0.356213        -0.740005
 C         4.448273        -1.159398        -0.410127
 C         3.090387        -1.074176        -1.052653
 O         1.910366        -1.437939        -0.453082
 H         0.025807         0.056477         1.531885
 H        -0.500570         0.892030        -0.036767
 H        -0.519850        -0.925622         0.211549
 H         2.398278         1.507338         1.105587
 H         2.534262        -0.182926         1.540830
 H         1.669633         1.958387        -1.112309
 H         1.895847         0.778103        -2.514850
 H         5.122168        -1.823219        -0.989056
 H         4.317649        -1.406566         0.629676
 H         3.153883        -1.385577        -2.102820
