19
Iteration:  2180charge 0 multiplicity 1
 C        -0.062971         0.059742         0.226073
 C         1.395776         0.017358        -0.183592
 C         2.479515         0.484939         0.763865
 C         3.244340         0.356250        -0.653235
 C         1.954970         0.890284        -1.387275
 O         4.661055         0.311447        -0.780066
 C         4.619132        -1.153994        -0.400827
 C         3.152018        -1.128653        -0.908582
 O         1.797535        -1.418920        -0.454279
 H        -0.372460        -0.875144         0.734203
 H        -0.177232         0.934746         0.977348
 H        -0.678995         0.181171        -0.661565
 H         2.520552         1.535774         1.004580
 H         2.722501        -0.114365         1.620437
 H         1.489318         1.912107        -1.217063
 H         1.745373         0.512989        -2.386052
 H         5.379764        -1.799202        -0.811787
 H         4.866585        -1.068118         0.679057
 H         3.340680        -1.389289        -1.929503
