19
Iteration:  1243charge 0 multiplicity 1
 C        -0.190871         0.027085         0.210315
 C         1.361794         0.036635        -0.101461
 C         2.482748         0.519382         0.757041
 C         3.316887         0.319173        -0.626763
 C         1.977266         0.915843        -1.310644
 O         4.786634         0.334176        -0.735284
 C         4.598625        -1.203726        -0.574738
 C         3.135601        -1.133809        -0.966501
 O         1.810203        -1.399995        -0.379398
 H        -0.461401        -0.425762         1.233625
 H        -0.704996         1.065298        -0.017836
 H        -0.754513        -0.542296        -0.525934
 H         2.368332         1.577205         0.949205
 H         2.564501        -0.041874         1.718929
 H         1.675666         1.953765        -1.159141
 H         1.834185         0.647028        -2.383662
 H         5.229838        -1.717892        -1.284022
 H         4.839186        -1.417222         0.479884
 H         3.251165        -1.388473        -2.076525
