19
Iteration:  3795charge 0 multiplicity 1
 C        -0.021733        -0.021008         0.249446
 C         1.403846         0.021063        -0.110476
 C         2.579789         0.699162         0.615856
 C         3.239612         0.317466        -0.729382
 C         1.888118         0.745898        -1.410633
 O         4.677322         0.337225        -0.840671
 C         4.561843        -1.115615        -0.257240
 C         3.099745        -1.110504        -0.871639
 O         1.829404        -1.448250        -0.381731
 H        -0.457094        -0.304903        -0.678849
 H         0.023583        -0.910919         0.912424
 H        -0.484640         0.974388         0.624583
 H         2.368465         1.779842         0.725824
 H         2.774289         0.257102         1.646475
 H         1.708647         1.842149        -1.605990
 H         1.507466         0.290737        -2.327046
 H         5.269845        -1.716851        -0.777016
 H         4.692218        -1.059215         0.892854
 H         3.045325        -1.390850        -1.944805
