19
Iteration:   372
 C        -0.094734         0.075781         0.336977
 C         1.387313        -0.003608        -0.198546
 C         2.458459         0.395115         0.804745
 C         3.220637         0.349086        -0.721810
 C         2.001227         0.966302        -1.348819
 O         4.696894         0.309974        -0.838840
 C         4.552426        -1.128905        -0.324631
 C         3.176014        -1.143863        -0.960873
 O         1.840675        -1.417452        -0.550697
 H        -0.297018        -0.916327         0.963592
 H        -0.254958         0.873356         1.123060
 H        -0.838662         0.470995        -0.370573
 H         2.453355         1.492876         1.018067
 H         2.684362        -0.295050         1.675199
 H         1.565818         2.025663        -1.075525
 H         1.819789         0.676339        -2.467079
 H         5.331099        -1.855258        -0.714566
 H         4.693094        -0.992910         0.766477
 H         3.395971        -1.458094        -2.002023
