19
Iteration:  3928charge 0 multiplicity 1
 C         0.022624        -0.082848         0.391518
 C         1.333346        -0.076287        -0.135330
 C         2.497250         0.668964         0.649154
 C         3.233325         0.389033        -0.736816
 C         1.997167         0.790090        -1.521922
 O         4.698692         0.328358        -0.786913
 C         4.525866        -1.064388        -0.206595
 C         3.142332        -1.104582        -0.921731
 O         1.781513        -1.457558        -0.508476
 H        -0.806541        -0.396330        -0.260214
 H        -0.190675        -0.503837         1.307850
 H        -0.207947         0.944364         0.675879
 H         2.312122         1.759488         0.589844
 H         2.849515         0.448407         1.623255
 H         1.797061         1.833165        -1.390453
 H         1.756492         0.374010        -2.578872
 H         5.345988        -1.676377        -0.664758
 H         4.694495        -0.975128         0.866874
 H         3.310333        -1.561402        -1.927807
