19
Iteration:  3499charge 0 multiplicity 1
 C        -0.231767        -0.002384         0.096108
 C         1.314270         0.025798        -0.117146
 C         2.518666         0.649402         0.653894
 C         3.225244         0.342191        -0.684969
 C         1.874335         0.855542        -1.351827
 O         4.746927         0.356076        -0.808598
 C         4.677867        -1.139807        -0.514171
 C         3.173098        -1.140099        -0.846843
 O         1.923442        -1.486831        -0.187304
 H        -0.546508        -0.910701        -0.460445
 H        -0.310448        -0.307543         1.186792
 H        -0.781986         0.890200        -0.118914
 H         2.358779         1.753470         0.783455
 H         2.979668         0.214998         1.545854
 H         1.706308         1.905163        -1.208030
 H         1.613513         0.557411        -2.421233
 H         5.417440        -1.684194        -1.120431
 H         4.793083        -1.464709         0.542663
 H         2.998007        -1.525068        -1.866973
