19
Iteration:  4197charge 0 multiplicity 1
 C        -0.127008         0.054806         0.171525
 C         1.328709        -0.065378        -0.090612
 C         2.470662         0.683900         0.664553
 C         3.262451         0.306087        -0.731840
 C         2.000095         0.762403        -1.388445
 O         4.592393         0.330999        -0.857780
 C         4.692675        -1.032200        -0.375876
 C         3.133978        -1.161424        -0.865638
 O         1.894242        -1.485744        -0.240372
 H        -0.681105         0.180655        -0.686023
 H        -0.567175        -0.805556         0.547258
 H        -0.405007         0.869395         0.795276
 H         2.306654         1.719763         0.667313
 H         2.937517         0.197430         1.436212
 H         1.762745         1.778788        -1.403737
 H         1.936470         0.419352        -2.437186
 H         5.399804        -1.423662        -1.017286
 H         5.006343        -1.110502         0.710992
 H         2.947515        -1.510006        -1.898028
