19
Iteration:  3895charge 0 multiplicity 1
 C        -0.092014        -0.083183         0.308070
 C         1.308357         0.103991        -0.280243
 C         2.522767         0.534875         0.612479
 C         3.238620         0.342071        -0.774750
 C         1.875153         0.842310        -1.462769
 O         4.752691         0.317915        -0.779435
 C         4.576258        -1.090090        -0.273520
 C         3.136197        -1.089341        -0.891310
 O         1.868806        -1.416121        -0.273230
 H        -0.539018        -1.005569        -0.103701
 H         0.105223        -0.146511         1.338042
 H        -0.650479         0.755339        -0.165778
 H         2.599817         1.596220         0.913906
 H         2.765864        -0.101553         1.432875
 H         1.723849         1.878130        -1.186065
 H         1.654035         0.607862        -2.561850
 H         5.366534        -1.615540        -0.856981
 H         4.733583        -1.203409         0.845603
 H         3.081873        -1.494996        -1.926972
