19
Iteration:   634
 C        -0.251017         0.096851         0.233752
 C         1.321632         0.008157        -0.141329
 C         2.486056         0.435659         0.824227
 C         3.269204         0.363392        -0.690618
 C         1.926758         0.890614        -1.246543
 O         4.760504         0.322340        -0.855890
 C         4.709814        -1.138028        -0.443495
 C         3.193274        -1.113755        -0.949962
 O         1.811881        -1.460328        -0.477421
 H        -0.275441        -0.391413         1.325239
 H        -0.443603         1.263533         0.329085
 H        -0.889985        -0.324412        -0.539920
 H         2.429700         1.495403         1.016181
 H         3.024828         0.048176         1.674172
 H         1.756413         2.012667        -1.051301
 H         1.708347         0.682685        -2.308026
 H         5.324224        -1.778711        -1.126065
 H         4.771408        -1.328051         0.714758
 H         3.137948        -1.567015        -1.997949
