19
Iteration:   170charge 0 multiplicity 1
 C        -0.062794        -0.113937         0.292774
 C         1.368007         0.070914        -0.142387
 C         2.581341         0.650813         0.736365
 C         3.245646         0.385635        -0.690687
 C         1.885744         0.851925        -1.389284
 O         4.765610         0.219289        -0.679939
 C         4.600281        -1.165037        -0.489968
 C         3.109108        -1.098371        -0.973409
 O         1.775078        -1.349140        -0.458903
 H        -0.332370        -1.125684         0.626272
 H        -0.274674         0.606966         1.225102
 H        -0.749664         0.323411        -0.559166
 H         2.407474         1.700191         1.165601
 H         2.870622         0.057275         1.672137
 H         1.504030         1.992619        -1.187242
 H         1.707143         0.707496        -2.482604
 H         5.253820        -1.755208        -1.129754
 H         4.706099        -1.595784         0.566102
 H         3.101154        -1.392923        -2.055983
