19
Iteration:   346
 C        -0.081705         0.025225         0.295663
 C         1.379073         0.032304        -0.158268
 C         2.608287         0.390034         0.677229
 C         3.227584         0.316895        -0.689804
 C         1.942493         0.988050        -1.298318
 O         4.669409         0.296259        -0.787685
 C         4.693463        -1.082632        -0.344968
 C         3.095133        -1.171260        -0.940448
 O         1.724890        -1.387103        -0.512678
 H        -0.391076        -0.744368         0.973225
 H        -0.388056         0.997064         0.616959
 H        -0.704586        -0.012017        -0.646601
 H         2.491511         1.398210         1.027262
 H         2.814373        -0.397205         1.349735
 H         1.802418         1.949221        -0.877525
 H         1.830105         0.695149        -2.366395
 H         5.574126        -1.599668        -0.735443
 H         4.652479        -1.031704         0.742946
 H         3.203596        -1.362573        -2.035406
