19
Iteration:  3069charge 0 multiplicity 1
 C        -0.113213         0.039699         0.250142
 C         1.367874        -0.021252        -0.126531
 C         2.480570         0.568758         0.742249
 C         3.226215         0.352905        -0.642122
 C         1.994137         0.839902        -1.353343
 O         4.640294         0.293379        -0.857293
 C         4.629312        -1.083835        -0.374319
 C         3.182994        -1.112035        -0.939904
 O         1.867613        -1.494687        -0.427326
 H        -0.431199        -0.057683         1.283504
 H        -0.487394         1.017732        -0.253285
 H        -0.666077        -0.741129        -0.303180
 H         2.176159         1.653633         1.002439
 H         2.775599         0.080614         1.683920
 H         1.713293         1.907376        -1.255924
 H         1.810541         0.692229        -2.481647
 H         5.451543        -1.623551        -0.800423
 H         4.661860        -1.077371         0.756341
 H         3.226395        -1.225426        -2.012665
