19
Iteration:  2448
 C        -0.047483         0.089932         0.336872
 C         1.392990        -0.015335        -0.203717
 C         2.458453         0.534215         0.670990
 C         3.233457         0.387093        -0.697356
 C         1.925497         0.764289        -1.451560
 O         4.750339         0.356598        -0.749639
 C         4.647850        -1.084321        -0.298304
 C         3.157706        -1.145158        -0.959837
 O         1.716869        -1.441415        -0.437715
 H        -0.307876        -0.972161         0.763714
 H        -0.134548         0.836946         1.093234
 H        -0.555277         0.301676        -0.612071
 H         2.466511         1.668594         0.929452
 H         2.839183        -0.197680         1.523581
 H         1.582376         1.818213        -1.287924
 H         1.851872         0.495902        -2.485248
 H         5.398418        -1.782025        -0.833354
 H         4.524617        -1.130175         0.783396
 H         3.204544        -1.625352        -1.903967
