19
Iteration:  1931
 C        -0.156355         0.061519         0.210590
 C         1.324327         0.023268        -0.155017
 C         2.520818         0.400642         0.741358
 C         3.212949         0.374918        -0.621139
 C         1.972406         0.863340        -1.296346
 O         4.772757         0.301120        -0.843368
 C         4.644576        -1.113771        -0.417958
 C         3.116545        -1.124306        -0.957607
 O         1.825488        -1.339934        -0.395136
 H        -0.234243        -0.467585         1.138652
 H        -0.697724         1.087565         0.085028
 H        -0.620175        -0.662215        -0.464216
 H         2.671183         1.419491         1.136306
 H         2.457736        -0.420787         1.501877
 H         1.737840         1.941380        -1.291747
 H         1.752367         0.475949        -2.250895
 H         5.434646        -1.684479        -0.897301
 H         4.784100        -1.144672         0.665920
 H         3.091349        -1.323439        -2.113468
