19
Iteration:  4876charge 0 multiplicity 1
 C        -0.086894        -0.020002         0.273118
 C         1.338657         0.037481        -0.244114
 C         2.436116         0.586678         0.540357
 C         3.249632         0.358196        -0.745367
 C         1.921130         0.873661        -1.467831
 O         4.713586         0.285410        -0.777819
 C         4.667049        -1.155513        -0.244404
 C         3.129770        -1.139516        -0.847562
 O         1.860177        -1.385082        -0.314595
 H        -0.960168         0.142329        -0.384378
 H        -0.160180        -1.053255         0.585054
 H        -0.291515         0.636488         1.162978
 H         2.378656         1.598544         0.845512
 H         2.662759         0.087914         1.439060
 H         1.592416         1.919878        -1.234563
 H         1.810296         0.581109        -2.508336
 H         5.394775        -1.740354        -0.805122
 H         4.852137        -1.015131         0.810139
 H         3.245915        -1.630156        -1.863027
