19
Iteration:  2113charge 0 multiplicity 1
 C        -0.093267        -0.041644         0.283724
 C         1.326087        -0.045706        -0.211530
 C         2.540700         0.599137         0.694766
 C         3.276824         0.393677        -0.647595
 C         2.026083         0.946654        -1.406386
 O         4.661796         0.275659        -0.690695
 C         4.590999        -1.192611        -0.460530
 C         3.092284        -1.064446        -0.898323
 O         1.834322        -1.411949        -0.450895
 H        -0.174422        -0.165109         1.450920
 H        -0.741841         0.832110         0.022417
 H        -0.533616        -0.950778        -0.075330
 H         2.579952         1.615091         1.029281
 H         2.788565         0.002021         1.582560
 H         1.764446         2.080200        -1.296965
 H         1.902407         0.633192        -2.481981
 H         5.181656        -1.898682        -1.111402
 H         4.686925        -1.496992         0.603114
 H         3.061233        -1.186822        -1.966294
