19
Iteration:  1553charge 0 multiplicity 1
 C        -0.141406         0.029377         0.194644
 C         1.348684        -0.043692        -0.124829
 C         2.594532         0.431870         0.748119
 C         3.249619         0.377329        -0.636829
 C         1.879411         0.934583        -1.260027
 O         4.729743         0.294545        -0.871920
 C         4.648679        -1.125687        -0.435713
 C         3.134038        -1.098682        -0.887163
 O         1.790509        -1.391431        -0.446153
 H        -0.489316        -0.911243         0.602195
 H        -0.423680         1.114423         0.594468
 H        -0.548386         0.115644        -0.851348
 H         2.518545         1.442053         1.266303
 H         2.974541        -0.286027         1.544714
 H         1.608988         1.958131        -1.015321
 H         1.638599         0.748338        -2.270712
 H         5.465241        -1.671739        -0.908154
 H         4.816832        -1.151448         0.652138
 H         3.120830        -1.447345        -1.965024
