19
Iteration:   298charge 0 multiplicity 1
 C        -0.173251        -0.018694         0.183910
 C         1.301766        -0.066036        -0.129717
 C         2.494542         0.581551         0.818515
 C         3.252133         0.392375        -0.577298
 C         1.993673         1.039768        -1.370814
 O         4.760983         0.192942        -0.717355
 C         4.615454        -1.195017        -0.602448
 C         3.115120        -1.019225        -1.075785
 O         1.875111        -1.439415        -0.298934
 H        -0.117469        -0.307365         1.241434
 H        -0.681735         0.943858        -0.104372
 H        -0.788727        -0.776486        -0.317552
 H         2.337920         1.710331         0.849767
 H         2.703360        -0.114069         1.717453
 H         1.767136         2.079246        -0.984832
 H         2.059730         0.666614        -2.322665
 H         5.316929        -1.670385        -1.310783
 H         4.663523        -1.637877         0.432209
 H         2.942576        -1.106538        -2.149164
