19
Iteration:   999
 C        -0.056512         0.107629         0.331099
 C         1.341823         0.048339        -0.076298
 C         2.510845         0.422353         0.714947
 C         3.264355         0.380546        -0.670707
 C         2.007217         0.819939        -1.298109
 O         4.716273         0.331891        -0.731581
 C         4.513815        -1.061538        -0.411781
 C         3.133686        -1.137393        -1.062640
 O         1.818187        -1.454113        -0.539420
 H        -0.387387        -0.820703         0.752967
 H        -0.251210         0.784023         1.105681
 H        -0.578643         0.285198        -0.683227
 H         2.329316         1.434774         0.986294
 H         2.754741        -0.326031         1.414188
 H         1.735246         1.921146        -1.309611
 H         1.723272         0.539110        -2.298654
 H         5.259864        -1.796941        -0.734887
 H         4.638606        -1.118144         0.674146
 H         3.212920        -1.480536        -2.150546
