19
Iteration:  2485charge 0 multiplicity 1
 C        -0.050296        -0.072500         0.296959
 C         1.353879         0.063419        -0.147683
 C         2.557279         0.704700         0.630952
 C         3.224803         0.350176        -0.723490
 C         1.965429         0.870794        -1.402480
 O         4.654896         0.277207        -0.727156
 C         4.531982        -1.183596        -0.319997
 C         3.165324        -1.138351        -0.979019
 O         1.851277        -1.423056        -0.423197
 H        -0.229382        -0.751824         1.079475
 H        -0.601477         0.879110         0.594075
 H        -0.588301        -0.499176        -0.542100
 H         2.544866         1.740748         0.918359
 H         2.744990         0.115056         1.494346
 H         1.615605         1.871493        -1.145922
 H         1.836307         0.698882        -2.506245
 H         5.264349        -1.813235        -0.749637
 H         4.674126        -1.179086         0.801917
 H         3.229377        -1.440995        -2.062165
