19
Iteration:  4301charge 0 multiplicity 1
 C        -0.191122        -0.012319         0.212963
 C         1.360076        -0.004094        -0.146003
 C         2.546016         0.558442         0.638087
 C         3.238645         0.401289        -0.743326
 C         1.894089         0.801655        -1.484138
 O         4.773106         0.334854        -0.777211
 C         4.658300        -1.078518        -0.382129
 C         3.120416        -1.124187        -0.944397
 O         1.864082        -1.399239        -0.196208
 H        -0.863595        -0.792522        -0.277424
 H        -0.269475         0.010632         1.344444
 H        -0.662867         0.864161        -0.242289
 H         2.507640         1.471027         1.208639
 H         2.854843        -0.132541         1.464496
 H         1.476057         1.816924        -1.468112
 H         1.711512         0.222701        -2.390409
 H         5.365948        -1.762363        -0.960553
 H         4.788320        -1.172907         0.703035
 H         2.955989        -1.573157        -1.875149
