19
Iteration:  4041
 C        -0.178728        -0.058625         0.201372
 C         1.323795        -0.006997        -0.198670
 C         2.576792         0.559524         0.642397
 C         3.178263         0.430796        -0.721203
 C         1.912842         0.830762        -1.470257
 O         4.750755         0.336622        -0.820955
 C         4.567936        -1.080418        -0.393953
 C         3.151425        -1.129114        -0.841088
 O         1.900512        -1.416160        -0.187819
 H        -0.701858        -0.375392        -0.673223
 H        -0.222048        -0.764962         1.052441
 H        -0.369886         0.997991         0.318978
 H         2.497274         1.564962         0.988619
 H         2.924271        -0.092832         1.476345
 H         1.646780         1.911899        -1.185781
 H         1.882852         0.373217        -2.456655
 H         5.390074        -1.614166        -1.018038
 H         4.626560        -1.292902         0.725784
 H         3.088091        -1.558950        -1.965417
