19
Iteration:  1965charge 0 multiplicity 1
 C         0.005382         0.021360         0.336191
 C         1.374890        -0.036031        -0.235986
 C         2.571733         0.636755         0.623575
 C         3.177876         0.357123        -0.652484
 C         1.956134         0.956419        -1.359779
 O         4.621888         0.299083        -0.664062
 C         4.526654        -1.223461        -0.356439
 C         3.133032        -1.097658        -0.984182
 O         1.881773        -1.485124        -0.498986
 H        -0.179363        -0.774722         0.960266
 H        -0.389985         0.860890         1.069490
 H        -0.730279        -0.099542        -0.518942
 H         2.535340         1.722032         0.734659
 H         2.900468         0.059039         1.506516
 H         1.627695         1.994492        -1.182077
 H         1.772944         0.585844        -2.345912
 H         5.240055        -1.762282        -0.911766
 H         4.720534        -1.206351         0.710718
 H         3.065097        -1.357163        -2.125859
