19
Iteration:  3376
 C        -0.153380        -0.078948         0.162726
 C         1.324275        -0.023154        -0.133451
 C         2.468643         0.632933         0.663799
 C         3.189941         0.460509        -0.657552
 C         1.957565         0.819927        -1.518369
 O         4.701815         0.307078        -0.871653
 C         4.651963        -1.163606        -0.368331
 C         3.101227        -1.088735        -0.835960
 O         1.928892        -1.423499        -0.159585
 H        -0.702667         0.094646        -0.757653
 H        -0.327159        -0.900979         0.736352
 H        -0.295776         0.845585         0.741802
 H         2.443411         1.673950         0.922833
 H         2.828332        -0.088915         1.434737
 H         1.745793         1.891707        -1.802106
 H         1.930741         0.289482        -2.425837
 H         5.358823        -1.668171        -1.075732
 H         4.963644        -1.161444         0.658237
 H         3.049070        -1.396429        -1.936253
