19
Iteration:  3159charge 0 multiplicity 1
 C        -0.121797        -0.029947         0.148464
 C         1.402653        -0.077752        -0.143269
 C         2.483746         0.666838         0.719541
 C         3.181747         0.381027        -0.695127
 C         1.974813         0.831912        -1.392409
 O         4.739149         0.326591        -0.795271
 C         4.612092        -1.069014        -0.431710
 C         3.162297        -1.167029        -0.957673
 O         1.810843        -1.459194        -0.227493
 H        -0.501492        -1.084607         0.139227
 H        -0.198458         0.497244         1.045150
 H        -0.677212         0.598336        -0.621245
 H         2.251073         1.667300         0.787948
 H         2.866307         0.466771         1.724697
 H         1.487712         1.864439        -1.230344
 H         1.953036         0.443223        -2.401085
 H         5.393759        -1.673834        -0.982877
 H         4.721367        -1.185556         0.642064
 H         3.128610        -1.484242        -1.966587
