19
Iteration:  3519
 C        -0.059590        -0.073413         0.056150
 C         1.410449        -0.032589        -0.077541
 C         2.485257         0.585969         0.748512
 C         3.250476         0.391324        -0.670530
 C         1.898673         0.746534        -1.436339
 O         4.666090         0.291483        -0.846256
 C         4.561215        -1.100631        -0.465265
 C         3.106594        -1.043618        -0.919490
 O         1.920254        -1.322004        -0.135333
 H        -0.591283        -0.472671        -0.874909
 H        -0.338678        -0.548564         1.009059
 H        -0.360870         0.950602         0.130298
 H         2.490036         1.664002         1.106289
 H         2.672769        -0.082702         1.625466
 H         1.508902         1.731426        -1.448121
 H         1.710311         0.239025        -2.416275
 H         5.379358        -1.664827        -1.099330
 H         4.964293        -1.121006         0.579308
 H         2.918963        -1.462299        -1.981625
