19
Iteration:  1337charge 0 multiplicity 1
 C        -0.045942        -0.101189         0.316578
 C         1.363608        -0.005794        -0.137458
 C         2.619181         0.581698         0.664464
 C         3.288946         0.419565        -0.666055
 C         2.006178         0.894556        -1.356032
 O         4.714744         0.260473        -0.706936
 C         4.515283        -1.134305        -0.407723
 C         3.079515        -1.102827        -0.970864
 O         1.761736        -1.347118        -0.508012
 H        -0.072307        -0.886508         1.129765
 H        -0.474182         0.820538         0.560304
 H        -0.809528        -0.489039        -0.449329
 H         2.377492         1.627940         0.949502
 H         2.656269        -0.035155         1.558895
 H         1.780673         2.027125        -1.331148
 H         1.731016         0.359095        -2.330664
 H         5.229820        -1.836468        -0.896257
 H         4.480164        -1.294226         0.706210
 H         3.128520        -1.100446        -2.034466
