19
Iteration:   517charge 0 multiplicity 1
 C        -0.088504        -0.038415         0.372899
 C         1.351553        -0.030451        -0.174744
 C         2.602149         0.491867         0.736602
 C         3.220581         0.339316        -0.655344
 C         2.010321         0.992278        -1.408897
 O         4.657653         0.277748        -0.718106
 C         4.571530        -1.113141        -0.393780
 C         3.116540        -1.142119        -1.051744
 O         1.792403        -1.373977        -0.498651
 H        -0.205667        -0.231711         1.413500
 H        -0.396438         1.066018         0.304893
 H        -0.806329        -0.478696        -0.356225
 H         2.639533         1.522606         1.180468
 H         2.952215        -0.236353         1.510808
 H         1.631056         2.047055        -1.234450
 H         1.942680         0.720674        -2.462168
 H         5.347227        -1.681782        -0.873896
 H         4.638897        -1.318751         0.700785
 H         3.211825        -1.440029        -2.078687
