19
Iteration:  2179charge 0 multiplicity 1
 C        -0.063557         0.066482         0.232197
 C         1.406527         0.010491        -0.181760
 C         2.479142         0.490186         0.766290
 C         3.247660         0.353479        -0.656700
 C         1.951476         0.895269        -1.387638
 O         4.653688         0.313398        -0.782045
 C         4.618214        -1.154826        -0.390096
 C         3.148172        -1.127099        -0.902217
 O         1.799054        -1.423035        -0.465439
 H        -0.385944        -0.917474         0.752305
 H        -0.215322         0.949204         0.973710
 H        -0.652464         0.157888        -0.670299
 H         2.538990         1.532752         0.983318
 H         2.738776        -0.108195         1.614695
 H         1.480376         1.948243        -1.216226
 H         1.762851         0.507214        -2.403764
 H         5.380870        -1.816864        -0.816783
 H         4.888053        -1.088010         0.685935
 H         3.334909        -1.395765        -1.966482
