19
Iteration:  2038charge 0 multiplicity 1
 C        -0.058392         0.031428         0.138049
 C         1.392452        -0.020335        -0.055415
 C         2.526167         0.460417         0.747708
 C         3.259509         0.336610        -0.662487
 C         1.985740         0.908682        -1.313080
 O         4.687567         0.346097        -0.868953
 C         4.582140        -1.094220        -0.362734
 C         3.102922        -1.170854        -1.011046
 O         1.782372        -1.431927        -0.367511
 H        -0.523321        -0.583888         0.946276
 H        -0.287519         1.071365         0.472010
 H        -0.520139        -0.109591        -0.791367
 H         2.447049         1.582890         0.767202
 H         2.698758         0.059552         1.814782
 H         1.630603         1.883333        -0.893440
 H         1.982017         0.784478        -2.383315
 H         5.413978        -1.724888        -0.855863
 H         4.698464        -1.226382         0.733892
 H         3.023628        -1.365628        -2.059661
