19
Iteration:  4031charge 0 multiplicity 1
 C        -0.182846        -0.055407         0.123379
 C         1.304728        -0.021311        -0.154514
 C         2.537698         0.635105         0.726462
 C         3.226293         0.352165        -0.713246
 C         1.898593         0.788073        -1.385963
 O         4.777394         0.314785        -0.865018
 C         4.669050        -1.108159        -0.427040
 C         3.126984        -1.069759        -0.853629
 O         1.878729        -1.378930        -0.194580
 H        -0.772715        -0.294571        -0.736770
 H        -0.441489        -0.884154         0.846000
 H        -0.568581         0.899921         0.577936
 H         2.500837         1.681076         0.944191
 H         2.766346        -0.078477         1.552614
 H         1.452255         1.812655        -1.595410
 H         1.703932         0.363166        -2.362572
 H         5.277186        -1.925174        -0.980385
 H         4.978850        -1.113383         0.691841
 H         3.214338        -1.255989        -2.021734
