19
Iteration:   232
 C        -0.082463         0.109065         0.282687
 C         1.379241        -0.054772        -0.134185
 C         2.563354         0.387561         0.704378
 C         3.239117         0.391865        -0.683315
 C         1.919566         0.919273        -1.248877
 O         4.687623         0.331918        -0.860443
 C         4.567265        -1.176160        -0.309691
 C         3.154414        -1.059520        -0.962152
 O         1.821790        -1.446835        -0.514855
 H        -0.295702        -0.446316         1.208334
 H        -0.405214         1.120060         0.411227
 H        -0.634531        -0.150851        -0.574215
 H         2.371157         1.445538         0.799128
 H         2.737879        -0.363049         1.496522
 H         1.737594         1.946500        -0.934631
 H         1.799043         0.801165        -2.291543
 H         5.252587        -1.828689        -0.878460
 H         4.704709        -1.290334         0.760929
 H         3.265721        -1.182607        -2.043140
