19
Iteration:    70charge 0 multiplicity 1
 C        -0.080395         0.075622         0.359923
 C         1.340131        -0.017161        -0.152330
 C         2.489648         0.432619         0.738461
 C         3.262256         0.374736        -0.689932
 C         2.009037         0.923514        -1.318032
 O         4.653342         0.342563        -0.790292
 C         4.547302        -1.162961        -0.416632
 C         3.149876        -1.112745        -1.095674
 O         1.881784        -1.468608        -0.428158
 H        -0.297665         0.182841         1.510714
 H        -0.598769         0.889369        -0.149318
 H        -0.594024        -0.728416        -0.180533
 H         2.384359         1.493293         0.956505
 H         2.838133        -0.166936         1.569469
 H         1.832796         1.988424        -1.005511
 H         1.770827         0.697915        -2.414243
 H         5.494617        -1.713142        -0.640359
 H         4.465295        -1.140012         0.668173
 H         3.099295        -1.231316        -2.192423
