19
Iteration:  2189
 C        -0.075637         0.049718         0.156153
 C         1.300751         0.028871        -0.205037
 C         2.497145         0.472910         0.717027
 C         3.227515         0.353579        -0.629202
 C         1.980803         0.816687        -1.339592
 O         4.744259         0.302362        -0.780372
 C         4.630777        -1.100673        -0.429740
 C         3.156908        -1.118397        -0.941899
 O         1.806914        -1.380883        -0.352502
 H        -0.341498        -0.950197         0.760039
 H        -0.060390         0.859359         0.991644
 H        -0.876411         0.378057        -0.479926
 H         2.262632         1.431767         1.128496
 H         2.644971        -0.234683         1.512173
 H         1.755534         1.988660        -1.203146
 H         1.701574         0.491546        -2.369161
 H         5.388153        -1.671171        -1.009965
 H         4.560413        -1.251664         0.687115
 H         3.100315        -1.393744        -2.084521
