19
Iteration:  1280charge 0 multiplicity 1
 C        -0.158911         0.136161         0.211883
 C         1.379873        -0.073936        -0.111549
 C         2.589779         0.405331         0.755833
 C         3.210185         0.347903        -0.656187
 C         2.005156         0.942884        -1.310267
 O         4.692232         0.385475        -0.793536
 C         4.577151        -1.149098        -0.411125
 C         3.128133        -1.143331        -0.978688
 O         1.856163        -1.461566        -0.438192
 H        -0.386982         0.198267         1.264102
 H        -0.563573         1.145715        -0.152670
 H        -0.639638        -0.796861        -0.301408
 H         2.455555         1.492576         1.114499
 H         2.704822        -0.377016         1.547211
 H         1.680767         2.002182        -1.194806
 H         1.776546         0.766111        -2.386318
 H         5.291056        -1.712041        -1.052544
 H         4.717134        -1.344218         0.663229
 H         2.987578        -1.327103        -2.051253
