19
Iteration:  3311charge 0 multiplicity 1
 C        -0.122395        -0.018526         0.209749
 C         1.327220        -0.032905        -0.193564
 C         2.485836         0.555217         0.635064
 C         3.297688         0.391023        -0.700694
 C         1.888762         0.712099        -1.492499
 O         4.736355         0.368313        -0.907977
 C         4.617719        -1.045459        -0.285016
 C         3.139463        -1.122687        -0.821804
 O         1.840271        -1.385692        -0.231798
 H        -0.891184         0.530684        -0.410942
 H        -0.541843        -0.902913         0.558261
 H         0.043686         0.608892         1.135463
 H         2.436218         1.581234         0.887634
 H         2.828465        -0.232222         1.300719
 H         1.630286         1.821622        -1.537092
 H         1.839125         0.303014        -2.470285
 H         5.413241        -1.766462        -0.628988
 H         4.753452        -0.947423         0.773828
 H         3.220402        -1.557210        -1.846644
