19
Iteration:    63
 C        -0.031910         0.054996         0.356299
 C         1.394926        -0.045431        -0.097599
 C         2.444109         0.490876         0.712963
 C         3.248237         0.335401        -0.713259
 C         2.033587         0.921941        -1.372456
 O         4.681040         0.366208        -0.760531
 C         4.480078        -1.164053        -0.412407
 C         3.098794        -1.076700        -1.078292
 O         1.914780        -1.453628        -0.446293
 H        -0.128995         0.027331         1.399689
 H        -0.527148         0.996024        -0.115366
 H        -0.496532        -0.969995         0.153127
 H         2.417863         1.536558         1.127207
 H         2.550090        -0.232713         1.579570
 H         1.694998         1.960774        -1.080663
 H         1.860713         0.824605        -2.432355
 H         5.220198        -1.813455        -0.872358
 H         4.267853        -1.348785         0.695573
 H         3.168618        -1.362006        -2.152645
