19
Iteration:  4186charge 0 multiplicity 1
 C        -0.202613         0.024572         0.121223
 C         1.348036         0.009313        -0.147220
 C         2.497411         0.626286         0.735527
 C         3.201842         0.354336        -0.658965
 C         1.943498         0.749566        -1.457232
 O         4.683922         0.364698        -0.896469
 C         4.729746        -1.096199        -0.468053
 C         3.144290        -1.153640        -0.770499
 O         1.888683        -1.460828        -0.215903
 H        -0.667519         0.161069        -0.782716
 H        -0.507470        -0.791828         0.685660
 H        -0.305977         0.892045         0.733193
 H         2.318625         1.656299         0.898051
 H         2.710783         0.273933         1.686723
 H         1.660671         1.749468        -1.341470
 H         1.645818         0.279877        -2.398693
 H         5.360103        -1.711767        -1.029426
 H         4.963303        -1.191256         0.635068
 H         3.284697        -1.527929        -1.801664
