19
Iteration:  2627charge 0 multiplicity 1
 C        -0.019534        -0.165315         0.280469
 C         1.414431         0.079186        -0.126950
 C         2.605523         0.664757         0.582308
 C         3.256284         0.398012        -0.778008
 C         1.976163         0.872391        -1.468008
 O         4.652907         0.294137        -0.726677
 C         4.493611        -1.116007        -0.291097
 C         3.083853        -1.142470        -0.872212
 O         1.773746        -1.421882        -0.412089
 H        -0.200019        -1.068331         0.799170
 H        -0.316925         0.679290         0.953810
 H        -0.686614        -0.137067        -0.641376
 H         2.494016         1.713545         0.943384
 H         3.033365         0.107359         1.451030
 H         1.740029         1.930920        -1.285900
 H         1.611366         0.514900        -2.468399
 H         5.331006        -1.657028        -0.722315
 H         4.736632        -1.100856         0.819450
 H         3.271884        -1.600423        -1.808203
