19
Iteration:  3456charge 0 multiplicity 1
 C        -0.070560         0.021995         0.307415
 C         1.360813         0.017841        -0.254540
 C         2.498446         0.426069         0.677517
 C         3.295432         0.399592        -0.706154
 C         1.923145         0.753629        -1.469642
 O         4.735469         0.384405        -0.820393
 C         4.585953        -1.019843        -0.322033
 C         3.190382        -1.109980        -0.936736
 O         1.753535        -1.436043        -0.325818
 H        -0.473825        -1.022506         0.280867
 H         0.024919         0.188416         1.467508
 H        -0.700097         0.855889         0.019444
 H         2.369778         1.503313         0.950583
 H         2.605824        -0.160123         1.588198
 H         1.621827         1.779024        -1.613353
 H         1.631445         0.147898        -2.416436
 H         5.413627        -1.695415        -0.512711
 H         4.637576        -0.943926         0.764796
 H         3.212354        -1.271821        -2.004535
