19
Iteration:   479charge 0 multiplicity 1
 C        -0.153023         0.098326         0.187480
 C         1.330173        -0.047762        -0.160685
 C         2.605852         0.464622         0.812291
 C         3.261051         0.360000        -0.599003
 C         1.916572         0.942766        -1.250142
 O         4.676649         0.282217        -0.810696
 C         4.608037        -1.138211        -0.438237
 C         3.131626        -1.164004        -1.010602
 O         1.837611        -1.402642        -0.476225
 H        -0.331765        -0.105931         1.270529
 H        -0.388703         1.096565        -0.105609
 H        -0.769677        -0.696919        -0.157193
 H         2.746641         1.488019         1.088545
 H         2.849690        -0.295300         1.532552
 H         1.744634         1.971183        -0.957001
 H         1.870733         0.806022        -2.359170
 H         5.476451        -1.558670        -1.006636
 H         4.647252        -1.225371         0.654368
 H         3.090149        -1.321960        -2.125179
