19
Iteration:  1049charge 0 multiplicity 1
 C        -0.117098        -0.002241         0.245375
 C         1.315196         0.025752        -0.207262
 C         2.533481         0.444815         0.825206
 C         3.249415         0.336235        -0.677624
 C         2.034960         0.954842        -1.306369
 O         4.734597         0.311080        -0.745647
 C         4.574293        -1.124851        -0.459852
 C         3.145538        -1.132790        -1.025720
 O         1.794074        -1.392896        -0.436792
 H        -0.031251        -0.424722         1.278364
 H        -0.652402         1.049640         0.354180
 H        -0.726120        -0.590294        -0.480571
 H         2.522129         1.559666         1.039127
 H         2.666830        -0.364095         1.672926
 H         1.869706         2.084569        -1.167924
 H         1.686642         0.873746        -2.368102
 H         5.361052        -1.713153        -0.958406
 H         4.504637        -1.415915         0.632498
 H         3.082438        -1.348113        -2.069593
