19
Iteration:  4558
 C        -0.030539         0.053098         0.290768
 C         1.342034        -0.017856        -0.195045
 C         2.525223         0.562680         0.682233
 C         3.211442         0.378301        -0.730307
 C         1.852875         0.812938        -1.501148
 O         4.731145         0.309406        -0.733810
 C         4.644021        -1.113536        -0.349842
 C         3.156611        -1.103795        -0.892590
 O         1.805593        -1.402554        -0.413892
 H        -0.570345        -0.889487        -0.023423
 H        -0.014452        -0.113148         1.423231
 H        -0.718251         0.899128         0.116602
 H         2.482343         1.574940         1.053418
 H         2.804644        -0.158545         1.504933
 H         1.378980         1.838176        -1.332562
 H         1.630406         0.383753        -2.533902
 H         5.556543        -1.730066        -0.680465
 H         4.697190        -1.228946         0.780456
 H         3.315119        -1.519543        -1.858474
