19
Iteration:  1577
 C        -0.164129         0.004720         0.159106
 C         1.375408        -0.014747        -0.130394
 C         2.489759         0.592302         0.801006
 C         3.263349         0.309207        -0.641758
 C         2.002010         0.963287        -1.226449
 O         4.660995         0.302856        -0.837080
 C         4.623947        -1.151722        -0.511996
 C         3.112802        -1.159690        -0.944503
 O         1.861234        -1.430721        -0.399357
 H        -0.301428        -1.106856         0.331543
 H        -0.421397         0.755623         0.909203
 H        -0.763858         0.254500        -0.805368
 H         2.437133         1.663517         1.141380
 H         2.812665         0.006459         1.706565
 H         1.976073         1.986444        -1.026601
 H         1.718108         0.724377        -2.209391
 H         5.320597        -1.725285        -1.076967
 H         4.925037        -1.195141         0.531267
 H         3.071939        -1.417017        -2.037735
