19
Iteration:  2041
 C        -0.071417         0.043940         0.129947
 C         1.409626        -0.042513        -0.056258
 C         2.542955         0.436840         0.737543
 C         3.244733         0.345300        -0.664484
 C         1.992791         0.915770        -1.324463
 O         4.703801         0.349334        -0.867098
 C         4.566751        -1.105837        -0.383836
 C         3.093219        -1.131047        -0.983104
 O         1.793828        -1.448237        -0.341067
 H        -0.523429        -0.471556         0.869552
 H        -0.329347         1.119824         0.430408
 H        -0.634584        -0.222489        -0.795070
 H         2.468714         1.558057         0.879405
 H         2.624621        -0.015419         1.755787
 H         1.697792         1.868330        -0.963746
 H         1.960224         0.787970        -2.354249
 H         5.412627        -1.559781        -0.826095
 H         4.661231        -1.238148         0.697721
 H         2.927673        -1.375829        -2.086767
