19
Iteration:  1040charge 0 multiplicity 1
 C        -0.077446         0.084205         0.245409
 C         1.402360        -0.012816        -0.159048
 C         2.446197         0.433512         0.727553
 C         3.228754         0.333130        -0.726565
 C         1.948358         0.967559        -1.286163
 O         4.769312         0.291750        -0.741375
 C         4.609300        -1.100731        -0.439358
 C         3.129020        -1.133760        -0.907151
 O         1.786645        -1.414297        -0.518073
 H        -0.161408        -0.524787         1.181180
 H        -0.472318         1.064996         0.608811
 H        -0.815413        -0.536250        -0.411304
 H         2.369081         1.460625         1.113734
 H         2.845627        -0.301379         1.487375
 H         1.727522         2.058473        -0.827990
 H         1.775011         0.796618        -2.394037
 H         5.345330        -1.697936        -1.014989
 H         4.679835        -1.402910         0.666954
 H         3.144058        -1.385819        -1.980767
