19
Iteration:   125
 C        -0.143431         0.058837         0.121060
 C         1.362779         0.011194        -0.131228
 C         2.569830         0.516082         0.799191
 C         3.204968         0.330262        -0.597091
 C         2.036489         0.869609        -1.282385
 O         4.648494         0.305911        -0.851295
 C         4.630181        -1.074462        -0.536440
 C         3.086470        -1.150414        -0.971867
 O         1.837089        -1.443855        -0.304975
 H        -0.325194        -0.834422         0.836581
 H        -0.530997         0.987418         0.646199
 H        -0.728839        -0.189056        -0.800613
 H         2.886497         1.524495         1.142801
 H         2.743320        -0.143879         1.678596
 H         1.713998         1.979501        -1.062533
 H         1.877099         0.689136        -2.388850
 H         5.389179        -1.648058        -1.104532
 H         4.845557        -1.227007         0.549398
 H         2.959955        -1.243047        -2.069103
