19
Iteration:  1235charge 0 multiplicity 1
 C        -0.191472        -0.040256         0.222145
 C         1.256084         0.075445        -0.123352
 C         2.457074         0.533358         0.753479
 C         3.332088         0.367960        -0.649152
 C         2.013717         0.944653        -1.317114
 O         4.750055         0.304131        -0.728634
 C         4.627009        -1.226801        -0.565313
 C         3.152528        -1.130349        -0.979885
 O         1.851234        -1.415932        -0.363109
 H        -0.486464        -0.400242         1.197633
 H        -0.512707         1.091623         0.319445
 H        -0.752511        -0.486462        -0.635112
 H         2.497771         1.666079         0.904282
 H         2.811719        -0.041565         1.676174
 H         1.839095         1.977809        -1.243420
 H         1.782194         0.793467        -2.336202
 H         5.272432        -1.843939        -1.176270
 H         4.700879        -1.453242         0.495111
 H         3.036219        -1.381358        -2.077877
