19
Iteration:  4506
 C        -0.070537        -0.072847         0.072330
 C         1.359094         0.012277        -0.177669
 C         2.496190         0.527498         0.671879
 C         3.241191         0.415310        -0.667060
 C         1.944546         0.843268        -1.357989
 O         4.730157         0.270550        -0.840385
 C         4.590413        -1.115900        -0.475742
 C         3.093597        -1.046128        -0.872942
 O         1.875489        -1.366906        -0.115255
 H        -0.678801        -0.829092        -0.449165
 H        -0.250982        -0.052776         1.153133
 H        -0.454146         0.786904        -0.378905
 H         2.275770         1.475498         1.123928
 H         2.664193        -0.166865         1.563202
 H         1.630201         1.884783        -1.294592
 H         1.850805         0.432001        -2.376263
 H         5.106891        -1.733710        -1.210051
 H         4.774331        -1.253486         0.567073
 H         3.112251        -1.336553        -1.971419
