19
Iteration:  2610
 C        -0.081299        -0.059506         0.280863
 C         1.321058        -0.009704        -0.182036
 C         2.507855         0.653818         0.639277
 C         3.225616         0.311151        -0.747289
 C         1.891554         0.892570        -1.373088
 O         4.747652         0.282965        -0.788069
 C         4.620735        -1.131169        -0.259023
 C         3.162520        -1.178292        -0.965254
 O         1.849677        -1.346708        -0.390093
 H        -0.149171        -0.889944         1.101453
 H        -0.579717         0.768843         0.734852
 H        -0.760645        -0.477430        -0.482928
 H         2.418689         1.726634         0.555738
 H         2.845190         0.377542         1.648799
 H         1.735498         2.002259        -1.234750
 H         1.820829         0.571150        -2.405371
 H         5.255787        -1.963074        -0.728581
 H         4.485375        -1.157402         0.812619
 H         3.167590        -1.261318        -2.133575
