19
Iteration:  2696charge 0 multiplicity 1
 C        -0.103687         0.086859         0.110009
 C         1.399604        -0.055750        -0.145133
 C         2.534727         0.538689         0.728191
 C         3.262022         0.321290        -0.696496
 C         1.953120         0.751984        -1.356930
 O         4.627104         0.388316        -0.795552
 C         4.688792        -1.018123        -0.447095
 C         3.118220        -1.154329        -0.839529
 O         1.798483        -1.445710        -0.299838
 H        -0.608211        -0.709352         0.767975
 H        -0.192752         1.065382         0.536970
 H        -0.533425         0.016665        -0.916859
 H         2.392554         1.500278         1.189466
 H         2.826290        -0.237127         1.425645
 H         1.587751         1.862573        -1.252412
 H         1.760106         0.420921        -2.423451
 H         5.391939        -1.780934        -0.992172
 H         4.884214        -1.107924         0.645306
 H         3.017167        -1.335735        -1.944263
