19
Iteration:  1671
 C        -0.033658         0.015370         0.340812
 C         1.366290        -0.000054        -0.240551
 C         2.561198         0.313957         0.711928
 C         3.193810         0.461788        -0.666902
 C         2.007230         1.004737        -1.363645
 O         4.649628         0.286295        -0.801258
 C         4.611900        -1.083864        -0.316300
 C         3.066510        -1.043447        -0.963040
 O         1.805330        -1.454455        -0.481729
 H        -0.075652        -0.331980         1.324768
 H        -0.585338         1.002875         0.079494
 H        -0.605725        -0.684767        -0.189846
 H         2.605488         1.258642         1.235801
 H         2.955467        -0.432173         1.390050
 H         1.774245         2.155121        -1.245523
 H         1.795239         0.706101        -2.452863
 H         5.196458        -1.939780        -0.744403
 H         4.597209        -1.266187         0.796143
 H         3.349568        -1.372681        -1.958544
