19
Iteration:    23charge 0 multiplicity 1
 C        -0.173817        -0.115263         0.350738
 C         1.321163         0.151918        -0.083423
 C         2.522605         0.617156         0.689630
 C         3.258574         0.323145        -0.719016
 C         1.850826         0.896194        -1.355763
 O         4.811193         0.274906        -0.660872
 C         4.649207        -1.222922        -0.452368
 C         3.166376        -1.154487        -1.010358
 O         1.805383        -1.314803        -0.527517
 H        -0.075367        -0.354792         1.437904
 H        -0.808159         0.766823         0.278450
 H        -0.619414        -0.966862        -0.142936
 H         2.577583         1.697477         0.804310
 H         2.677660         0.110366         1.634239
 H         1.781179         1.971167        -1.329711
 H         1.590597         0.511926        -2.334385
 H         5.366192        -1.705586        -1.123586
 H         4.882366        -1.489191         0.563987
 H         3.194093        -1.423662        -2.067392
