19
Iteration:  3495charge 0 multiplicity 1
 C        -0.230205        -0.012098         0.116453
 C         1.311510         0.023727        -0.103106
 C         2.528360         0.638623         0.617148
 C         3.254920         0.333879        -0.676875
 C         1.887283         0.861210        -1.356990
 O         4.730030         0.353870        -0.800607
 C         4.652536        -1.141769        -0.498026
 C         3.164445        -1.120568        -0.831707
 O         1.921757        -1.506071        -0.215755
 H        -0.660393        -0.894267        -0.430930
 H        -0.273043        -0.173046         1.147541
 H        -0.856458         0.859490        -0.158283
 H         2.398780         1.727646         0.651626
 H         2.923522         0.304784         1.613409
 H         1.747039         1.942870        -1.163412
 H         1.591439         0.598765        -2.336880
 H         5.417706        -1.647056        -1.212796
 H         5.001933        -1.317218         0.573456
 H         3.028121        -1.541481        -1.875757
