19
Iteration:  3654charge 0 multiplicity 1
 C        -0.123508        -0.128723         0.170152
 C         1.352499         0.035084        -0.085289
 C         2.539974         0.581179         0.720286
 C         3.255810         0.347716        -0.754672
 C         2.066925         0.808240        -1.461289
 O         4.692407         0.359675        -0.823003
 C         4.627848        -1.136419        -0.489914
 C         3.079693        -1.106355        -0.798517
 O         1.791308        -1.329800        -0.212680
 H        -0.472869        -0.938210        -0.431556
 H        -0.487159        -0.263085         1.219594
 H        -0.714768         0.707542        -0.329831
 H         2.465585         1.644914         0.962873
 H         2.803328         0.027889         1.661034
 H         1.671787         1.881850        -1.533502
 H         1.786794         0.388774        -2.423782
 H         5.293764        -1.594349        -1.152330
 H         4.841211        -1.284943         0.627774
 H         3.053454        -1.427964        -1.889102
