19
Iteration:   692
 C        -0.112400        -0.121441         0.406998
 C         1.325075         0.000271        -0.168424
 C         2.473478         0.526264         0.653424
 C         3.296156         0.412609        -0.637073
 C         1.938201         1.021593        -1.394547
 O         4.756937         0.202866        -0.696287
 C         4.601789        -1.213508        -0.483008
 C         3.135060        -1.034987        -1.006410
 O         1.844178        -1.346560        -0.453178
 H        -0.247385        -0.302891         1.443708
 H        -0.682600         0.786918         0.215534
 H        -0.678724        -0.908475        -0.156311
 H         2.376242         1.621050         0.588344
 H         2.758395         0.055250         1.578342
 H         1.702264         2.032611        -1.183080
 H         1.930587         0.805185        -2.522377
 H         5.308749        -1.907453        -0.808801
 H         4.457578        -1.393392         0.612415
 H         3.143172        -1.156270        -2.087029
