19
Iteration:  1610charge 0 multiplicity 1
 C        -0.083155        -0.006637         0.227177
 C         1.314489        -0.029960        -0.209059
 C         2.578506         0.520586         0.723091
 C         3.263464         0.409131        -0.658463
 C         1.950252         0.919189        -1.384331
 O         4.700294         0.307076        -0.675944
 C         4.534943        -1.220010        -0.524358
 C         3.096561        -1.015829        -0.917329
 O         1.882354        -1.395577        -0.364384
 H        -0.414738        -1.030732         0.686273
 H        -0.311135         0.610879         1.051257
 H        -0.801083         0.136435        -0.681890
 H         2.418219         1.501207         1.251346
 H         2.993948        -0.289034         1.390703
 H         1.702741         1.916175        -1.319670
 H         1.708372         0.531984        -2.349176
 H         5.142748        -1.677840        -1.248948
 H         4.878179        -1.383030         0.492123
 H         3.071566        -1.388842        -1.962465
