19
Iteration:  4775
 C        -0.050533        -0.053739         0.281723
 C         1.374403         0.134489        -0.157319
 C         2.466058         0.637723         0.711470
 C         3.210535         0.347329        -0.740657
 C         1.950432         0.767626        -1.447107
 O         4.676146         0.257069        -0.711710
 C         4.633658        -1.104466        -0.336403
 C         3.097741        -1.123215        -0.954042
 O         1.865520        -1.349085        -0.399111
 H        -0.243329        -1.104201        -0.112896
 H        -0.271679        -0.021476         1.365664
 H        -0.784989         0.606432        -0.081127
 H         2.409624         1.695502         0.831243
 H         2.873794        -0.154779         1.344229
 H         1.589537         1.775088        -1.559936
 H         1.716082         0.316676        -2.425336
 H         5.395631        -1.675420        -0.892297
 H         4.734442        -1.373574         0.782933
 H         3.295691        -1.430120        -2.026747
