19
Iteration:  2007charge 0 multiplicity 1
 C        -0.132889        -0.063004         0.318689
 C         1.307333         0.100959        -0.153372
 C         2.578962         0.498731         0.659758
 C         3.275515         0.407282        -0.668556
 C         1.898214         0.872956        -1.435478
 O         4.742958         0.252865        -0.788798
 C         4.643605        -1.165340        -0.300728
 C         3.128498        -1.078546        -0.878162
 O         1.777272        -1.373975        -0.502058
 H        -0.204332        -1.014859         0.766835
 H        -0.305322         0.794407         1.051823
 H        -0.792839         0.066223        -0.505634
 H         2.543198         1.576833         0.991480
 H         2.836551        -0.202162         1.530470
 H         1.585354         1.929122        -1.315072
 H         1.814227         0.671902        -2.441874
 H         5.193760        -1.813738        -0.980018
 H         4.823999        -1.320543         0.774357
 H         3.358561        -1.201469        -1.987217
