19
Iteration:  1708
 C        -0.130283        -0.024718         0.197002
 C         1.340377         0.061712        -0.094113
 C         2.566617         0.560344         0.786606
 C         3.249048         0.331118        -0.616277
 C         1.932817         0.938464        -1.263814
 O         4.678690         0.269188        -0.735678
 C         4.636064        -1.194917        -0.496638
 C         3.131917        -1.069974        -0.988441
 O         1.847267        -1.444514        -0.498330
 H        -0.388921        -0.066660         1.271843
 H        -0.530574         0.896413        -0.090531
 H        -0.567045        -0.858922        -0.455687
 H         2.330172         1.658288         0.858769
 H         3.005433         0.130620         1.712934
 H         1.702499         1.953055        -1.190572
 H         1.690269         0.550358        -2.198824
 H         5.347628        -1.593862        -1.185880
 H         4.900425        -1.406692         0.535564
 H         2.946843        -1.261754        -2.062420
