19
Iteration:  1845charge 0 multiplicity 1
 C        -0.032636        -0.014301         0.283235
 C         1.357963        -0.057860        -0.203430
 C         2.502797         0.576500         0.729646
 C         3.249349         0.330643        -0.651201
 C         1.999537         0.921117        -1.412106
 O         4.716764         0.318693        -0.674065
 C         4.631592        -1.177560        -0.458689
 C         3.053466        -1.092692        -1.000069
 O         1.774190        -1.385111        -0.428505
 H        -0.002996        -0.643816         1.164440
 H        -0.436208         1.034218         0.644002
 H        -0.705703        -0.516033        -0.428971
 H         2.251830         1.577485         0.994737
 H         2.732781        -0.023703         1.612150
 H         1.817682         2.020128        -1.178283
 H         1.684622         0.573312        -2.419059
 H         5.341098        -1.718178        -1.075317
 H         4.716554        -1.278664         0.637956
 H         3.169526        -1.368224        -2.019436
