19
Iteration:  1718
 C        -0.129164        -0.001637         0.162032
 C         1.379437         0.013817        -0.052237
 C         2.581182         0.580730         0.734418
 C         3.264721         0.410956        -0.558904
 C         1.915666         0.928091        -1.312017
 O         4.685604         0.277057        -0.715679
 C         4.621777        -1.201289        -0.572820
 C         3.090242        -1.112141        -0.963156
 O         1.835149        -1.423250        -0.436720
 H        -0.360790        -0.339557         1.150338
 H        -0.614175         0.870815        -0.138736
 H        -0.652307        -0.841420        -0.416399
 H         2.384990         1.581677         1.184640
 H         2.844944        -0.112211         1.560439
 H         1.650324         1.945583        -1.351875
 H         1.760198         0.497932        -2.255055
 H         5.310496        -1.673845        -1.236458
 H         4.852109        -1.534140         0.458859
 H         3.375656        -1.053008        -2.019145
