19
Iteration:   418
 C        -0.163387        -0.052325         0.240074
 C         1.371440         0.045626        -0.059178
 C         2.539158         0.568976         0.689877
 C         3.294796         0.338160        -0.645232
 C         1.889234         0.994283        -1.359454
 O         4.727536         0.285780        -0.655654
 C         4.602156        -1.221746        -0.514939
 C         3.087795        -1.132988        -1.033898
 O         1.881236        -1.368398        -0.408179
 H        -0.425031        -0.957007         0.864722
 H        -0.645602         0.908699         0.702908
 H        -0.675103        -0.005141        -0.747169
 H         2.569774         1.690959         0.984664
 H         2.834759        -0.162008         1.521451
 H         1.919045         2.170629        -1.219137
 H         1.736789         0.543233        -2.349643
 H         5.262616        -1.614115        -1.279675
 H         4.753797        -1.713965         0.507304
 H         3.046668        -1.592726        -2.023951
