19
Iteration:  3717charge 0 multiplicity 1
 C        -0.122190         0.039054         0.247365
 C         1.317662         0.069574        -0.153008
 C         2.555166         0.561838         0.673931
 C         3.243168         0.324878        -0.714003
 C         1.919104         0.722226        -1.448513
 O         4.693759         0.359859        -0.836211
 C         4.645442        -1.043357        -0.365428
 C         3.170598        -1.148472        -0.829192
 O         1.800180        -1.442395        -0.344471
 H        -0.541634        -0.434828        -0.587295
 H        -0.227084        -0.500452         1.234298
 H        -0.316238         1.097884         0.424254
 H         2.464988         1.648838         0.916983
 H         2.898977        -0.102453         1.498032
 H         1.615836         1.783378        -1.481706
 H         1.698167         0.143026        -2.346115
 H         5.402743        -1.697088        -0.855766
 H         4.799584        -1.049506         0.774818
 H         3.121105        -1.451792        -1.880183
