19
Iteration:  3689charge 0 multiplicity 1
 C        -0.155426         0.035053         0.075630
 C         1.295304        -0.059317        -0.129398
 C         2.510041         0.573741         0.678640
 C         3.246230         0.371072        -0.702457
 C         1.898658         0.847618        -1.322284
 O         4.674646         0.249823        -0.906540
 C         4.682842        -1.094205        -0.438198
 C         3.159834        -1.070345        -0.858829
 O         1.918498        -1.432443        -0.170311
 H        -0.601769        -0.849097        -0.549684
 H        -0.489259         0.001333         1.099973
 H        -0.325276         1.101894        -0.307843
 H         2.284744         1.616199         0.834490
 H         2.901217         0.080795         1.597688
 H         1.558969         1.805625        -0.821268
 H         1.642964         0.525048        -2.351307
 H         5.410096        -1.806109        -0.859473
 H         4.908588        -1.105545         0.664526
 H         3.141387        -1.272441        -1.970408
