19
Iteration:  3637
 C        -0.170031        -0.050462         0.233824
 C         1.271219         0.045554        -0.234591
 C         2.541210         0.665001         0.607589
 C         3.233297         0.387307        -0.641130
 C         1.845254         0.835705        -1.420013
 O         4.735757         0.254392        -0.771834
 C         4.693945        -1.122743        -0.402874
 C         3.178245        -1.138368        -0.898546
 O         1.862674        -1.391418        -0.262455
 H        -0.690505        -0.942412        -0.296047
 H        -0.107054        -0.328345         1.264444
 H        -0.766981         0.844229         0.164456
 H         2.449722         1.698167         0.955710
 H         2.908066         0.112236         1.476128
 H         1.698546         1.896412        -1.323070
 H         1.790851         0.467180        -2.463745
 H         5.261191        -1.869304        -1.074815
 H         5.050583        -1.242993         0.597576
 H         3.281695        -1.480181        -1.938363
