19
Iteration:  2669
 C        -0.172698         0.120701         0.245124
 C         1.336636        -0.059148        -0.168054
 C         2.400321         0.656606         0.704081
 C         3.257397         0.320957        -0.739246
 C         1.934993         0.819415        -1.348937
 O         4.717820         0.335937        -0.811442
 C         4.704338        -1.096686        -0.357915
 C         3.159871        -1.168708        -0.901467
 O         1.917228        -1.526303        -0.397667
 H        -0.470686        -0.795390         0.649080
 H        -0.169386         0.931054         1.037823
 H        -0.822217         0.364593        -0.604565
 H         1.958246         1.683561         0.877721
 H         2.772030         0.204487         1.656468
 H         1.808218         1.845828        -1.329299
 H         1.606126         0.475865        -2.327246
 H         5.304795        -1.784260        -0.825024
 H         4.842158        -1.228267         0.718648
 H         3.135286        -1.351924        -1.972377
