19
Iteration:   304charge 0 multiplicity 1
 C        -0.162195        -0.001274         0.207629
 C         1.292879        -0.050916        -0.118380
 C         2.497054         0.548605         0.763120
 C         3.312659         0.390033        -0.518680
 C         2.006271         0.964245        -1.331014
 O         4.759238         0.242364        -0.724794
 C         4.605165        -1.199603        -0.609017
 C         3.096181        -1.018872        -1.074787
 O         1.853273        -1.419927        -0.327731
 H        -0.295970        -0.325661         1.296334
 H        -0.659859         0.901772        -0.026494
 H        -0.590020        -0.715472        -0.537738
 H         2.456979         1.600440         0.843808
 H         2.785679        -0.022787         1.583809
 H         1.576615         1.918408        -1.085028
 H         1.892004         0.723728        -2.506534
 H         5.369863        -1.871382        -1.082599
 H         4.552416        -1.465922         0.446126
 H         2.911050        -1.066500        -2.169028
