19
Iteration:  2975charge 0 multiplicity 1
 C        -0.094384        -0.035683         0.294035
 C         1.333222         0.033285        -0.181801
 C         2.527137         0.492594         0.673940
 C         3.259465         0.432711        -0.714866
 C         1.858345         0.887920        -1.429228
 O         4.707372         0.265850        -0.821661
 C         4.645990        -1.084237        -0.256887
 C         3.149435        -1.062735        -0.859807
 O         1.860303        -1.425765        -0.434447
 H        -0.221097        -0.731891         1.182675
 H        -0.458593         0.975366         0.424883
 H        -0.898721        -0.324086        -0.482788
 H         2.566757         1.488816         1.055520
 H         2.743410        -0.353718         1.401928
 H         1.618675         1.961930        -1.612503
 H         1.654859         0.510796        -2.406560
 H         5.178755        -1.801020        -0.937772
 H         4.866468        -1.189277         0.828386
 H         3.288196        -1.517405        -1.920394
