19
Iteration:  3509charge 0 multiplicity 1
 C        -0.117626        -0.055865         0.112530
 C         1.349963         0.012693        -0.149593
 C         2.496924         0.659712         0.752147
 C         3.175552         0.395241        -0.713856
 C         1.882716         0.789377        -1.385584
 O         4.731531         0.313446        -0.816048
 C         4.687530        -1.113712        -0.501180
 C         3.143559        -1.160822        -0.946857
 O         1.908242        -1.373814        -0.108391
 H        -0.534126        -0.704488        -0.751717
 H        -0.633755        -0.417617         1.023907
 H        -0.474610         0.917633        -0.105404
 H         2.406013         1.714183         1.165726
 H         2.778749        -0.105291         1.494902
 H         1.520238         1.781258        -1.284424
 H         1.738359         0.368549        -2.428260
 H         5.369372        -1.794635        -1.115248
 H         4.683271        -1.334466         0.600242
 H         3.062762        -1.350518        -2.067752
