19
Iteration:  1102charge 0 multiplicity 1
 C        -0.166067         0.017412         0.167745
 C         1.274765         0.006234        -0.097613
 C         2.506090         0.534063         0.684830
 C         3.285140         0.367982        -0.609518
 C         1.871561         0.975888        -1.214338
 O         4.815040         0.229520        -0.742019
 C         4.679732        -1.231327        -0.525278
 C         3.117876        -1.100055        -0.987695
 O         1.853576        -1.370966        -0.415342
 H        -0.242690        -0.398675         1.172769
 H        -0.553693         0.996116        -0.221337
 H        -0.582906        -0.642315        -0.503291
 H         2.458177         1.600956         1.042121
 H         2.712331        -0.029986         1.658267
 H         1.509658         1.914154        -0.952254
 H         1.735607         0.784179        -2.264428
 H         5.403432        -1.763029        -1.133787
 H         4.610938        -1.513300         0.517714
 H         2.997708        -1.105716        -2.071836
