19
Iteration:  2548
 C        -0.177241         0.163787         0.151089
 C         1.335818         0.054209        -0.103312
 C         2.480863         0.535401         0.717716
 C         3.181464         0.208442        -0.722618
 C         1.923032         0.821922        -1.307961
 O         4.712868         0.360343        -0.766299
 C         4.700103        -1.043753        -0.464353
 C         3.183823        -1.231036        -0.938141
 O         1.855764        -1.482208        -0.314611
 H        -0.420966         0.164509         1.209487
 H        -0.642409         0.942747        -0.500178
 H        -0.458906        -0.751074        -0.281169
 H         2.517544         1.677961         0.870571
 H         2.729089        -0.118802         1.568024
 H         1.679017         1.810786        -0.998993
 H         1.900103         0.737294        -2.375320
 H         5.358581        -1.594182        -1.090506
 H         5.041708        -1.161986         0.602645
 H         3.231621        -1.446127        -1.952792
