19
Iteration:  4344
 C        -0.030463         0.041527         0.133567
 C         1.358202        -0.061327        -0.106199
 C         2.431714         0.686510         0.726095
 C         3.224376         0.321578        -0.682434
 C         2.027314         0.843776        -1.380450
 O         4.607263         0.292508        -0.885774
 C         4.659780        -1.068071        -0.460667
 C         3.153489        -1.166765        -0.863176
 O         1.834829        -1.462279        -0.221576
 H        -0.458477        -0.816560        -0.404716
 H        -0.199228        -0.222775         1.161196
 H        -0.565640         0.803174        -0.354397
 H         2.289200         1.730334         0.926563
 H         2.693138         0.222722         1.704423
 H         1.569975         1.810794        -1.174857
 H         1.965993         0.698169        -2.425594
 H         5.441956        -1.514739        -1.154737
 H         4.789277        -1.144971         0.637584
 H         3.075690        -1.596267        -1.852899
