19
Iteration:  2171
 C        -0.063651         0.074809         0.288856
 C         1.413662        -0.052752        -0.137517
 C         2.530519         0.534754         0.732081
 C         3.246605         0.331001        -0.683276
 C         1.930267         0.925931        -1.361882
 O         4.628465         0.324185        -0.806624
 C         4.628699        -1.148352        -0.270870
 C         3.118812        -1.121978        -0.902789
 O         1.819654        -1.446078        -0.557455
 H        -0.315807        -0.779035         0.753975
 H        -0.548359         0.966475         0.760375
 H        -0.584129         0.003779        -0.684011
 H         2.477255         1.638624         0.904756
 H         2.890216        -0.088011         1.563330
 H         1.765421         1.968886        -1.274400
 H         1.894965         0.585677        -2.365697
 H         5.199213        -1.726205        -0.973032
 H         4.838295        -1.354526         0.799610
 H         3.121508        -1.364503        -1.896594
