19
Iteration:  3874
 C        -0.126151        -0.024499         0.171531
 C         1.371201        -0.065281        -0.020345
 C         2.554317         0.667937         0.630103
 C         3.219830         0.366204        -0.702080
 C         1.962149         0.846634        -1.400552
 O         4.642764         0.323062        -0.772530
 C         4.628990        -1.121493        -0.422310
 C         3.187504        -1.156889        -0.901160
 O         1.818001        -1.400868        -0.314957
 H        -0.557109        -0.969635        -0.201692
 H        -0.389743        -0.013203         1.186637
 H        -0.578411         0.710238        -0.544666
 H         2.321624         1.726583         0.745781
 H         3.026194         0.356215         1.523168
 H         1.683674         1.862456        -1.242558
 H         1.734324         0.314641        -2.385503
 H         5.399580        -1.758452        -0.974121
 H         4.932020        -1.005176         0.646943
 H         3.049976        -1.705298        -1.869103
