19
Iteration:  2845charge 0 multiplicity 1
 C        -0.174260         0.003832         0.151391
 C         1.346198         0.019657        -0.116963
 C         2.466278         0.487615         0.762236
 C         3.228803         0.396219        -0.757446
 C         1.976325         0.847768        -1.349471
 O         4.766652         0.292102        -0.875594
 C         4.632093        -1.115431        -0.388790
 C         3.148917        -1.029386        -0.947646
 O         1.872694        -1.408290        -0.270645
 H        -0.466766        -0.584957         1.067762
 H        -0.603586         0.973498         0.197182
 H        -0.504974        -0.658355        -0.724409
 H         2.262667         1.374513         1.394828
 H         2.738114        -0.269055         1.596795
 H         1.780060         1.914878        -1.210813
 H         1.613852         0.327986        -2.197225
 H         5.270182        -1.842889        -0.897442
 H         4.750817        -1.076513         0.671629
 H         3.014343        -1.195234        -2.058480
