19
Iteration:  4777charge 0 multiplicity 1
 C        -0.047786        -0.069134         0.262929
 C         1.364875         0.145263        -0.166874
 C         2.475288         0.656677         0.722372
 C         3.212693         0.350013        -0.733009
 C         1.961038         0.759246        -1.438358
 O         4.668660         0.269838        -0.716209
 C         4.653538        -1.107879        -0.348960
 C         3.095046        -1.144780        -0.948606
 O         1.856001        -1.361683        -0.397314
 H        -0.307352        -1.111939        -0.100214
 H        -0.238284        -0.016111         1.328701
 H        -0.740289         0.642861        -0.074166
 H         2.488684         1.652512         0.914260
 H         2.808025        -0.079739         1.396924
 H         1.654280         1.793502        -1.529140
 H         1.698407         0.357655        -2.415493
 H         5.345484        -1.687488        -0.900310
 H         4.683374        -1.290287         0.724524
 H         3.206354        -1.434820        -1.979100
