19
Iteration:  1836charge 0 multiplicity 1
 C        -0.007163        -0.010425         0.316853
 C         1.391725        -0.050572        -0.142837
 C         2.470221         0.595347         0.667826
 C         3.239368         0.314712        -0.677289
 C         1.986144         0.906335        -1.389842
 O         4.706019         0.323404        -0.702910
 C         4.593595        -1.118116        -0.388546
 C         3.141090        -1.153059        -1.005803
 O         1.763734        -1.412092        -0.471290
 H        -0.067799        -0.744601         1.038135
 H        -0.312628         1.002423         0.724754
 H        -0.825553        -0.303427        -0.409307
 H         2.366550         1.633155         0.855006
 H         2.654885        -0.013773         1.529177
 H         1.737474         1.941454        -0.968283
 H         1.955326         1.051829        -2.523209
 H         5.295699        -1.676417        -0.985867
 H         4.563692        -1.534787         0.673687
 H         2.907553        -1.326432        -1.972773
