19
Iteration:  4454charge 0 multiplicity 1
 C        -0.067223         0.030579         0.264455
 C         1.365343        -0.011785        -0.205619
 C         2.524308         0.582021         0.688883
 C         3.246366         0.299435        -0.722249
 C         1.937599         0.760336        -1.472992
 O         4.672592         0.399060        -0.848482
 C         4.670459        -1.092043        -0.298901
 C         3.132766        -1.186218        -0.809464
 O         1.771775        -1.383019        -0.371270
 H        -0.720232        -0.037154        -0.608908
 H        -0.212324        -0.843612         0.875124
 H        -0.361024         0.928540         0.781735
 H         2.392204         1.642018         0.957878
 H         2.863517        -0.042684         1.557274
 H         1.654941         1.726807        -1.200657
 H         1.740471         0.530640        -2.500264
 H         5.301685        -1.706784        -0.926515
 H         4.827505        -0.988771         0.824715
 H         3.255323        -1.627789        -1.835665
