19
Iteration:  3550charge 0 multiplicity 1
 C        -0.186731        -0.041088         0.201972
 C         1.324114        -0.048856        -0.121866
 C         2.524365         0.740918         0.652611
 C         3.286921         0.319516        -0.679094
 C         1.919390         0.833331        -1.419191
 O         4.683327         0.306362        -0.878689
 C         4.721093        -1.066434        -0.345691
 C         3.153239        -1.153790        -0.879940
 O         1.807068        -1.484694        -0.294240
 H        -0.854190        -0.098068        -0.714088
 H        -0.420323        -0.864381         0.801410
 H        -0.262114         0.837138         0.811796
 H         2.486837         1.851701         0.774769
 H         2.783638         0.158179         1.558611
 H         1.725210         1.865407        -1.166679
 H         1.712084         0.673146        -2.474223
 H         5.630845        -1.618476        -0.833784
 H         4.889881        -0.933400         0.750983
 H         3.120657        -1.603043        -1.906516
