19
Iteration:  3368
 C        -0.121210        -0.010062         0.125394
 C         1.379897        -0.037644        -0.130106
 C         2.449630         0.669021         0.653925
 C         3.254842         0.404990        -0.673735
 C         1.955089         0.779608        -1.479737
 O         4.699704         0.308237        -0.863567
 C         4.615000        -1.093557        -0.456411
 C         3.146175        -1.132920        -0.791184
 O         1.895809        -1.449060        -0.155725
 H        -0.756763         0.073166        -0.824193
 H        -0.413956        -1.023764         0.547187
 H        -0.478130         0.708819         0.858823
 H         2.252247         1.713963         0.945438
 H         2.784992         0.248357         1.601222
 H         1.515370         1.774550        -1.250738
 H         1.904340         0.534898        -2.577107
 H         5.321617        -1.752040        -1.027528
 H         4.775201        -1.097895         0.620675
 H         2.989347        -1.457666        -1.815869
