19
Iteration:  3974
 C        -0.142636         0.022433         0.206788
 C         1.331354        -0.007544        -0.201565
 C         2.511977         0.517926         0.629218
 C         3.219577         0.309373        -0.788062
 C         1.918774         0.829991        -1.464209
 O         4.720249         0.370478        -0.814299
 C         4.606984        -1.048631        -0.367313
 C         3.173608        -1.144828        -0.851974
 O         1.935163        -1.395901        -0.168669
 H        -0.754455         0.212825        -0.697675
 H        -0.532854        -0.913004         0.558993
 H        -0.519765         0.647695         0.989023
 H         2.397177         1.455592         1.141656
 H         2.749890        -0.214441         1.375059
 H         1.553328         1.903806        -1.298374
 H         1.852947         0.305988        -2.471200
 H         5.369868        -1.782064        -0.908791
 H         4.678159        -1.098128         0.742216
 H         2.861620        -1.427523        -1.913603
