19
Iteration:  4817charge 0 multiplicity 1
 C        -0.148026         0.038860         0.072300
 C         1.341529        -0.070178        -0.088719
 C         2.456664         0.585780         0.738476
 C         3.238882         0.372391        -0.706405
 C         1.950340         0.874997        -1.437969
 O         4.680969         0.258471        -0.851244
 C         4.658078        -1.068850        -0.431964
 C         3.131913        -1.087043        -0.849833
 O         1.902994        -1.458588        -0.220730
 H        -0.751741        -0.412707        -0.753860
 H        -0.376757        -0.352929         1.094292
 H        -0.317316         1.120429         0.062167
 H         2.279378         1.634679         1.235990
 H         2.694882        -0.265881         1.488443
 H         1.690518         1.900451        -1.151429
 H         1.748502         0.586394        -2.489826
 H         5.474234        -1.685478        -0.882704
 H         5.037325        -1.123932         0.656604
 H         3.194908        -1.530113        -1.914411
