19
Iteration:  1238charge 0 multiplicity 1
 C        -0.195817        -0.014683         0.227451
 C         1.286304         0.067921        -0.107162
 C         2.463128         0.523654         0.762258
 C         3.347339         0.351078        -0.641514
 C         2.002999         0.924932        -1.310871
 O         4.767183         0.322236        -0.729444
 C         4.609441        -1.218624        -0.579471
 C         3.154116        -1.142603        -0.978530
 O         1.831808        -1.410623        -0.367188
 H        -0.495793        -0.373112         1.175162
 H        -0.568982         0.956852         0.157812
 H        -0.790866        -0.455056        -0.611654
 H         2.448021         1.632134         0.887569
 H         2.700092        -0.017964         1.670795
 H         1.730333         2.033880        -1.274918
 H         1.785644         0.806803        -2.398984
 H         5.256525        -1.836699        -1.252435
 H         4.718437        -1.417778         0.492902
 H         3.197631        -1.393240        -2.018455
