19
Iteration:  1966
 C         0.011356         0.019548         0.347656
 C         1.375946        -0.026167        -0.241332
 C         2.565152         0.635379         0.627525
 C         3.187811         0.341362        -0.654357
 C         1.957915         0.953528        -1.366123
 O         4.614069         0.297647        -0.659088
 C         4.520585        -1.214164        -0.356510
 C         3.125930        -1.088301        -0.996753
 O         1.888123        -1.487052        -0.492747
 H        -0.187245        -0.803292         0.947602
 H        -0.376877         0.842734         1.069538
 H        -0.733054        -0.082948        -0.539939
 H         2.547635         1.704116         0.728211
 H         2.913231         0.101359         1.481133
 H         1.624879         1.976655        -1.146768
 H         1.794919         0.602657        -2.404097
 H         5.211214        -1.797092        -0.889985
 H         4.709225        -1.209625         0.716775
 H         3.093883        -1.338513        -2.114777
