19
Iteration:  3111
 C        -0.148329        -0.052172         0.408707
 C         1.334749        -0.022864        -0.159369
 C         2.494268         0.515587         0.531101
 C         3.262277         0.397035        -0.778311
 C         1.895342         0.836246        -1.501184
 O         4.863651         0.320049        -0.708725
 C         4.646905        -1.029662        -0.259788
 C         3.117138        -1.100078        -0.980675
 O         1.770614        -1.390635        -0.409404
 H        -0.120155        -0.954306         1.028773
 H        -0.418973         0.950983         0.973934
 H        -0.850191        -0.152939        -0.422578
 H         2.591202         1.456034         1.197697
 H         2.659873        -0.194044         1.360053
 H         1.641534         1.914562        -1.417474
 H         1.660358         0.311614        -2.515746
 H         5.485395        -1.617469        -0.540989
 H         4.413592        -1.109521         0.836730
 H         3.134922        -1.576262        -2.000620
