19
Iteration:  4895charge 0 multiplicity 1
 C        -0.061287        -0.100816         0.358132
 C         1.296240         0.040897        -0.278530
 C         2.494476         0.674013         0.680916
 C         3.233251         0.323612        -0.719586
 C         2.012037         0.771595        -1.529506
 O         4.749595         0.291353        -0.772779
 C         4.501597        -1.083095        -0.262492
 C         3.168210        -1.103689        -0.918189
 O         1.842976        -1.364154        -0.373771
 H        -0.851757         0.160420        -0.406753
 H        -0.263055        -1.068474         0.802733
 H        -0.088745         0.640807         1.087624
 H         2.302946         1.725776         0.821734
 H         2.753944         0.003397         1.591594
 H         1.864290         1.820849        -1.536114
 H         1.740731         0.392069        -2.505372
 H         5.245543        -1.737140        -0.643611
 H         4.284404        -1.113195         0.835311
 H         3.368554        -1.503602        -1.933483
