19
Iteration:  3017
 C        -0.090397        -0.077245         0.113621
 C         1.375859         0.049433        -0.084671
 C         2.524575         0.646039         0.718616
 C         3.194930         0.311588        -0.652902
 C         2.022812         0.904336        -1.319466
 O         4.651218         0.347549        -0.708004
 C         4.573049        -1.156781        -0.543487
 C         3.098272        -1.155510        -0.977830
 O         1.879510        -1.463671        -0.275433
 H        -0.257525        -0.062921         1.155172
 H        -0.572783         0.724347        -0.483567
 H        -0.548170        -0.967143        -0.384804
 H         2.455920         1.707272         0.706983
 H         2.812857         0.501988         1.761119
 H         1.770238         2.012605        -1.236230
 H         1.860665         0.309794        -2.256161
 H         5.328926        -1.446079        -1.288075
 H         4.851363        -1.423677         0.516401
 H         2.986704        -1.339823        -2.050430
