19
Iteration:   987
 C        -0.060863         0.010476         0.298789
 C         1.403346         0.014246        -0.201508
 C         2.509164         0.423927         0.721178
 C         3.292833         0.341862        -0.710264
 C         1.945935         0.975461        -1.331814
 O         4.720051         0.352054        -0.757917
 C         4.566572        -1.177389        -0.373299
 C         3.065692        -1.084230        -1.004745
 O         1.831315        -1.432153        -0.424597
 H        -0.408707        -0.972602         0.560997
 H        -0.267806         0.755878         1.029019
 H        -0.837439         0.346395        -0.516727
 H         2.494813         1.425260         1.069398
 H         2.646838        -0.166108         1.622316
 H         1.834993         2.108611        -1.132906
 H         1.771804         0.514937        -2.308106
 H         5.273870        -1.653831        -1.041001
 H         4.497566        -1.393512         0.713864
 H         3.073668        -1.311832        -2.117750
