19
Iteration:  1709
 C        -0.127543        -0.025467         0.187012
 C         1.340174         0.062303        -0.084875
 C         2.573533         0.564268         0.781754
 C         3.252854         0.334348        -0.607878
 C         1.930426         0.942154        -1.266347
 O         4.677207         0.266776        -0.734134
 C         4.630257        -1.198324        -0.501657
 C         3.129027        -1.074167        -0.982888
 O         1.848225        -1.445263        -0.495709
 H        -0.405484        -0.083386         1.305719
 H        -0.537307         0.895637        -0.094188
 H        -0.588264        -0.853539        -0.449643
 H         2.297193         1.657279         0.884983
 H         3.006945         0.109775         1.700577
 H         1.679752         1.955174        -1.251147
 H         1.687403         0.549426        -2.212768
 H         5.382276        -1.568824        -1.189486
 H         4.924342        -1.414601         0.508792
 H         2.972318        -1.232686        -2.083236
