19
Iteration:  4712
 C        -0.097773        -0.004802         0.264526
 C         1.301112        -0.000061        -0.200838
 C         2.529475         0.530434         0.735963
 C         3.216795         0.343482        -0.743092
 C         1.994310         0.771853        -1.473103
 O         4.693022         0.377729        -0.836078
 C         4.607447        -1.120738        -0.260445
 C         3.146013        -1.135394        -0.860123
 O         1.833512        -1.358819        -0.404206
 H        -0.805097        -0.621702        -0.365380
 H        -0.159774        -0.318759         1.325769
 H        -0.370817         1.060652         0.314165
 H         2.592251         1.443861         1.235905
 H         2.814771        -0.262882         1.412224
 H         1.711783         1.842905        -1.474192
 H         1.729255         0.359612        -2.472260
 H         5.344016        -1.620039        -0.852284
 H         4.726743        -0.952580         0.773900
 H         3.192133        -1.424562        -1.870924
