19
Iteration:  4472
 C        -0.154285         0.005424         0.124351
 C         1.343658         0.016323        -0.063409
 C         2.618258         0.645493         0.623064
 C         3.197050         0.335989        -0.682216
 C         1.951908         0.860521        -1.309325
 O         4.632959         0.266544        -0.827051
 C         4.648935        -1.043738        -0.370314
 C         3.179762        -1.139185        -0.881545
 O         1.821822        -1.509608        -0.334619
 H        -0.615881        -0.397387        -0.797008
 H        -0.542050        -0.520644         1.033874
 H        -0.291231         1.046309         0.424310
 H         2.315514         1.697254         0.631570
 H         2.883897         0.231630         1.636444
 H         1.743681         1.969955        -1.415033
 H         1.782021         0.299278        -2.255478
 H         5.495234        -1.587169        -0.901587
 H         4.945962        -1.140578         0.647291
 H         3.149550        -1.461561        -1.959835
