19
Iteration:  3977
 C        -0.136967         0.018454         0.181746
 C         1.316918        -0.007160        -0.202616
 C         2.527744         0.523500         0.629313
 C         3.215767         0.339934        -0.776976
 C         1.958126         0.820297        -1.447313
 O         4.713211         0.367978        -0.831946
 C         4.601694        -1.055619        -0.385328
 C         3.161661        -1.152744        -0.840297
 O         1.922132        -1.406231        -0.151478
 H        -0.706640         0.194231        -0.711281
 H        -0.608393        -0.932628         0.580420
 H        -0.552568         0.600941         1.029884
 H         2.319538         1.479252         1.101179
 H         2.809403        -0.210249         1.441270
 H         1.532991         1.883530        -1.332695
 H         1.857940         0.428237        -2.456722
 H         5.421625        -1.649485        -0.919070
 H         4.681042        -1.155715         0.746819
 H         2.917984        -1.438350        -1.903367
