19
Iteration:  4036
 C        -0.194559        -0.060427         0.180797
 C         1.299827        -0.015622        -0.185941
 C         2.572660         0.586225         0.695814
 C         3.184522         0.396116        -0.732402
 C         1.906575         0.822961        -1.429208
 O         4.779758         0.329061        -0.842465
 C         4.618096        -1.103980        -0.413342
 C         3.133151        -1.110910        -0.852366
 O         1.892298        -1.393828        -0.181303
 H        -0.765453        -0.341181        -0.764448
 H        -0.276110        -0.885540         0.886149
 H        -0.405013         1.018860         0.360242
 H         2.501957         1.688811         0.957914
 H         2.814498        -0.110240         1.481782
 H         1.542983         1.828023        -1.362534
 H         1.847373         0.300337        -2.418526
 H         5.295528        -1.690674        -0.954074
 H         4.782936        -1.197638         0.633706
 H         3.237052        -1.320199        -1.852438
