19
Iteration:  1768
 C        -0.091017         0.003675         0.212184
 C         1.328900         0.018942        -0.094403
 C         2.525181         0.555421         0.751141
 C         3.201819         0.322750        -0.677319
 C         2.010391         0.893836        -1.327228
 O         4.662434         0.321215        -0.789495
 C         4.611348        -1.179544        -0.455432
 C         3.146226        -1.101224        -0.948766
 O         1.808724        -1.465406        -0.426347
 H        -0.426138        -0.920361         0.758299
 H        -0.387213         1.079116         0.698599
 H        -0.717623         0.047721        -0.653259
 H         2.417542         1.613693         0.958844
 H         2.934605         0.015891         1.611065
 H         1.793288         1.915471        -0.789436
 H         1.869123         0.919122        -2.477122
 H         5.509641        -1.500615        -1.060920
 H         4.836531        -1.309758         0.637650
 H         3.401851        -1.302952        -2.012502
