19
Iteration:   846
 C        -0.040088        -0.051723         0.295882
 C         1.338355        -0.047876        -0.199867
 C         2.534102         0.486688         0.679761
 C         3.285420         0.381251        -0.704406
 C         1.964695         0.938544        -1.270963
 O         4.790826         0.289648        -0.712626
 C         4.552291        -1.157820        -0.413636
 C         3.072030        -1.052987        -0.994303
 O         1.780746        -1.353275        -0.487784
 H        -0.074120        -0.374746         1.322328
 H        -0.508285         0.929849         0.196554
 H        -0.792999        -0.783223        -0.271540
 H         2.402655         1.519784         1.030681
 H         2.897162        -0.013172         1.612721
 H         1.516877         1.957388        -1.086450
 H         1.769181         0.643791        -2.315701
 H         5.201166        -1.931503        -0.880084
 H         4.465879        -1.219998         0.719201
 H         3.070509        -1.237840        -2.094580
