19
Iteration:  2968charge 0 multiplicity 1
 C        -0.101564        -0.006729         0.316755
 C         1.346628         0.027557        -0.168865
 C         2.554227         0.507437         0.647652
 C         3.260452         0.369883        -0.727909
 C         1.864247         0.856916        -1.442124
 O         4.709908         0.317271        -0.807086
 C         4.616461        -1.072871        -0.249351
 C         3.145327        -1.125095        -0.875137
 O         1.830040        -1.406988        -0.477669
 H        -0.184103        -0.840978         1.060862
 H        -0.493341         0.950581         0.649354
 H        -0.711788        -0.229306        -0.547300
 H         2.610844         1.468594         1.202344
 H         2.758305        -0.272312         1.406921
 H         1.663422         1.910621        -1.297558
 H         1.620136         0.425536        -2.400182
 H         5.359598        -1.744517        -0.714642
 H         4.821756        -0.945500         0.786206
 H         3.255728        -1.545361        -1.867586
