19
Iteration:  1306
 C        -0.109216         0.001746         0.282385
 C         1.377577         0.005362        -0.204318
 C         2.546005         0.478420         0.721440
 C         3.232926         0.340519        -0.678293
 C         1.941038         0.987895        -1.288861
 O         4.713415         0.271713        -0.797403
 C         4.612032        -1.137578        -0.372236
 C         3.165155        -1.159172        -0.975477
 O         1.809192        -1.388359        -0.476759
 H        -0.158203        -0.108899         1.394811
 H        -0.543155         0.922327         0.159476
 H        -0.637220        -0.748501        -0.224752
 H         2.443391         1.478004         1.026965
 H         2.484116        -0.267488         1.457022
 H         1.706165         2.065775        -1.121692
 H         1.611453         0.913329        -2.358999
 H         5.465828        -1.729388        -0.751901
 H         4.579940        -1.157894         0.745040
 H         3.073324        -1.286955        -2.020486
