19
Iteration:  2419charge 0 multiplicity 1
 C        -0.154292         0.093407         0.203099
 C         1.381823         0.002885        -0.160753
 C         2.493842         0.543996         0.693017
 C         3.214497         0.362788        -0.667332
 C         1.952823         0.866366        -1.323795
 O         4.650968         0.319928        -0.839273
 C         4.631396        -1.124302        -0.349155
 C         3.171754        -1.149341        -0.916431
 O         1.897687        -1.497420        -0.385768
 H        -0.754249        -0.683132         0.636651
 H        -0.231688         0.943906         0.978852
 H        -0.548373         0.363036        -0.753447
 H         2.536915         1.588458         0.939335
 H         2.774648        -0.086323         1.481993
 H         1.659186         1.929031        -1.224760
 H         1.831879         0.559768        -2.389046
 H         5.259245        -1.762985        -0.879076
 H         4.758414        -1.145721         0.786692
 H         3.204114        -1.596573        -1.980053
