19
Iteration:   924
 C        -0.082847         0.022378         0.163894
 C         1.320939        -0.017403        -0.130052
 C         2.592486         0.481407         0.780687
 C         3.298127         0.400815        -0.619624
 C         1.983379         0.918061        -1.305708
 O         4.659710         0.245904        -0.768546
 C         4.550382        -1.147933        -0.491938
 C         3.077635        -1.055025        -0.992455
 O         1.870117        -1.389875        -0.384352
 H        -0.391179        -0.563874         1.044774
 H        -0.422826         1.036237         0.316297
 H        -0.653884        -0.569720        -0.700456
 H         2.418191         1.505035         1.191410
 H         2.713072        -0.325299         1.510403
 H         1.697845         1.934738        -0.997261
 H         1.783395         0.532562        -2.286602
 H         5.335146        -1.529779        -1.228205
 H         4.693835        -1.376710         0.580783
 H         3.040298        -1.143273        -2.099181
