19
Iteration:  1793charge 0 multiplicity 1
 C        -0.040957         0.005141         0.313027
 C         1.333012         0.019166        -0.173607
 C         2.561338         0.416869         0.731753
 C         3.234037         0.379945        -0.693878
 C         1.906043         0.838211        -1.325733
 O         4.757417         0.287645        -0.803793
 C         4.567136        -1.097253        -0.353760
 C         3.168861        -1.061369        -0.959845
 O         1.753047        -1.343298        -0.495238
 H        -0.383915        -0.894338         0.639755
 H        -0.323670         0.891219         0.884876
 H        -0.620117         0.227235        -0.633611
 H         2.577945         1.387863         1.181628
 H         2.801900        -0.375900         1.411824
 H         1.453595         1.873069        -1.286347
 H         1.736355         0.326035        -2.316953
 H         5.396934        -1.686270        -0.697229
 H         4.563384        -0.949896         0.770058
 H         3.445538        -1.490464        -1.889108
