19
Iteration:  2962
 C        -0.090513         0.011461         0.301367
 C         1.352925         0.025938        -0.171373
 C         2.572038         0.509780         0.649709
 C         3.227427         0.301139        -0.753272
 C         1.905184         0.819675        -1.404233
 O         4.710929         0.361665        -0.800412
 C         4.601511        -1.056882        -0.263337
 C         3.161820        -1.166555        -0.897441
 O         1.782120        -1.378915        -0.481302
 H        -0.226466        -0.786857         1.001411
 H        -0.342146         0.895534         1.001615
 H        -0.635708        -0.314075        -0.618253
 H         2.461646         1.529648         1.060466
 H         2.919906        -0.165582         1.425834
 H         1.664434         1.868779        -1.097665
 H         1.619465         0.423444        -2.470764
 H         5.479245        -1.653284        -0.542912
 H         4.635363        -0.931706         0.895263
 H         3.337655        -1.497783        -1.952969
