19
Iteration:  2055
 C        -0.141095         0.103162         0.102227
 C         1.330419        -0.071277        -0.163264
 C         2.569518         0.433037         0.768636
 C         3.244465         0.402051        -0.660643
 C         2.008687         0.937557        -1.320790
 O         4.669192         0.320780        -0.809366
 C         4.573668        -1.102917        -0.489724
 C         3.105242        -1.091840        -0.914117
 O         1.876040        -1.469442        -0.262128
 H        -0.335953        -0.360293         1.122596
 H        -0.384607         1.143640         0.049012
 H        -0.681325        -0.423574        -0.780028
 H         2.475238         1.361500         1.304530
 H         3.037339        -0.365631         1.276960
 H         1.793432         2.000882        -1.167047
 H         1.725732         0.545231        -2.368564
 H         5.193388        -1.869618        -0.982922
 H         4.625172        -1.221759         0.595779
 H         3.107183        -1.325065        -2.027696
