19
Iteration:  2389
 C        -0.107730        -0.059952         0.117250
 C         1.371493         0.047681        -0.171058
 C         2.534083         0.527289         0.706174
 C         3.253922         0.389331        -0.641283
 C         1.942394         0.890772        -1.307791
 O         4.748587         0.286036        -0.822690
 C         4.637770        -1.123351        -0.449687
 C         3.118441        -1.112002        -0.904900
 O         1.774595        -1.363647        -0.268637
 H        -0.513114        -0.780897         0.759060
 H        -0.533185         0.973327         0.423606
 H        -0.673744        -0.248472        -0.852890
 H         2.583424         1.530131         1.078108
 H         2.803705        -0.184997         1.440040
 H         1.683752         1.931172        -1.191154
 H         1.806398         0.471182        -2.338179
 H         5.239578        -1.827493        -0.995645
 H         4.846898        -1.332089         0.603520
 H         2.953259        -1.578483        -1.903391
