19
Iteration:   510
 C        -0.056884         0.019064         0.339424
 C         1.350102        -0.076954        -0.124236
 C         2.568159         0.439177         0.709351
 C         3.249194         0.393129        -0.720285
 C         1.934177         1.013176        -1.382826
 O         4.693707         0.289720        -0.714481
 C         4.567581        -1.129593        -0.386295
 C         3.106741        -1.163047        -0.981711
 O         1.771163        -1.383087        -0.504692
 H        -0.164133        -0.188648         1.406395
 H        -0.416459         0.987650         0.156942
 H        -0.705006        -0.590450        -0.424796
 H         2.748559         1.442974         1.130853
 H         2.899101        -0.260385         1.488167
 H         1.838891         2.022609        -1.174632
 H         1.882358         0.831858        -2.474491
 H         5.505569        -1.521856        -0.906281
 H         4.780761        -1.312567         0.662270
 H         3.125957        -1.435366        -2.059816
