19
Iteration:  4066charge 0 multiplicity 1
 C         0.006099        -0.014068         0.329647
 C         1.388236        -0.040689        -0.183323
 C         2.494221         0.602947         0.605452
 C         3.140368         0.302275        -0.787239
 C         1.939229         0.857918        -1.439907
 O         4.640044         0.375602        -0.741822
 C         4.594612        -1.083736        -0.291197
 C         3.154271        -1.179755        -0.936398
 O         1.848261        -1.450086        -0.375489
 H        -0.553464        -0.740812        -0.252841
 H         0.079080        -0.156733         1.453414
 H        -0.255996         1.026320         0.036640
 H         2.403467         1.728843         0.668752
 H         2.703340         0.287969         1.632687
 H         1.708287         1.847049        -1.185927
 H         1.760372         0.422981        -2.390029
 H         5.409501        -1.560772        -0.758618
 H         4.630531        -1.114402         0.896308
 H         3.262724        -1.467839        -2.049123
