19
Iteration:  1053
 C        -0.129139        -0.028812         0.256205
 C         1.299462         0.053195        -0.208389
 C         2.558126         0.445955         0.816094
 C         3.270379         0.338665        -0.632641
 C         2.052182         0.956651        -1.318573
 O         4.702444         0.316767        -0.746207
 C         4.567524        -1.160361        -0.457204
 C         3.132115        -1.110874        -1.079259
 O         1.799051        -1.382636        -0.406336
 H        -0.089919        -0.455049         1.250355
 H        -0.550179         0.935211         0.168014
 H        -0.738789        -0.661493        -0.506360
 H         2.595133         1.474713         1.123092
 H         2.638975        -0.200406         1.657712
 H         1.917407         2.102964        -1.147703
 H         1.760524         0.752022        -2.379065
 H         5.353815        -1.735542        -0.970965
 H         4.546778        -1.303402         0.650913
 H         3.104199        -1.363315        -2.179243
