19
Iteration:  1715charge 0 multiplicity 1
 C        -0.124524        -0.025809         0.168319
 C         1.358683         0.040617        -0.050041
 C         2.589409         0.583218         0.749548
 C         3.264654         0.375843        -0.568940
 C         1.922343         0.937683        -1.284232
 O         4.678043         0.267957        -0.723988
 C         4.614126        -1.203372        -0.547717
 C         3.101975        -1.105406        -0.968068
 O         1.844094        -1.436527        -0.465577
 H        -0.379712        -0.226050         1.157767
 H        -0.628464         0.957333        -0.157660
 H        -0.642603        -0.793646        -0.368179
 H         2.293972         1.569534         1.063796
 H         2.919158        -0.011061         1.600297
 H         1.606676         2.049136        -1.410869
 H         1.698256         0.506526        -2.321273
 H         5.424486        -1.576554        -1.210336
 H         4.950362        -1.501221         0.499222
 H         3.253924        -1.089247        -2.059678
