19
Iteration:  1031
 C        -0.039743         0.075477         0.304335
 C         1.320116        -0.051682        -0.171643
 C         2.515050         0.431893         0.652769
 C         3.247983         0.387288        -0.660519
 C         1.908286         0.955644        -1.276699
 O         4.716190         0.290995        -0.744682
 C         4.662702        -1.166007        -0.359843
 C         3.126649        -1.097944        -0.947463
 O         1.770353        -1.418055        -0.545300
 H        -0.240059        -0.596268         1.119229
 H        -0.134046         1.112733         0.421945
 H        -0.762525        -0.087121        -0.612869
 H         2.307828         1.366765         1.121748
 H         2.813540        -0.197095         1.467357
 H         1.634027         2.033871        -0.905969
 H         1.656836         0.789500        -2.346271
 H         5.246663        -1.772153        -1.066425
 H         5.044641        -1.128311         0.674955
 H         3.322841        -1.484548        -1.987940
