19
Iteration:   199charge 0 multiplicity 1
 C        -0.068949        -0.010553         0.416817
 C         1.359513         0.029745        -0.112463
 C         2.509748         0.412533         0.682965
 C         3.219983         0.362938        -0.739700
 C         2.046684         0.956478        -1.411404
 O         4.666214         0.337158        -0.763046
 C         4.587718        -1.141992        -0.332443
 C         3.135964        -1.125998        -1.017298
 O         1.788982        -1.389188        -0.509656
 H        -0.419520        -0.987281         0.787107
 H        -0.182279         0.753948         1.113011
 H        -0.696725         0.164098        -0.387971
 H         2.442724         1.453130         0.989290
 H         2.771682        -0.122980         1.601262
 H         1.861959         1.983843        -1.175508
 H         1.947146         0.700481        -2.452085
 H         5.303416        -1.783804        -0.870903
 H         4.581287        -1.296184         0.730763
 H         3.186363        -1.404975        -2.074523
