19
Iteration:  4154
 C        -0.157599        -0.067799         0.125219
 C         1.393024        -0.000301        -0.095878
 C         2.531001         0.641348         0.719820
 C         3.227008         0.399813        -0.710122
 C         1.961422         0.805680        -1.443849
 O         4.683541         0.309832        -0.844451
 C         4.686281        -1.099933        -0.454397
 C         3.082061        -1.143424        -0.828390
 O         1.872635        -1.401178        -0.205364
 H        -0.707194        -0.485568        -0.718231
 H        -0.471668        -0.649149         0.964836
 H        -0.550742         0.942154         0.083439
 H         2.280749         1.731439         0.862028
 H         2.822737         0.084338         1.597754
 H         1.665688         1.793401        -1.343515
 H         1.692998         0.383483        -2.408984
 H         5.349086        -1.696477        -1.027128
 H         4.913766        -1.174037         0.702316
 H         3.001642        -1.467635        -1.915771
