19
Iteration:  3671charge 0 multiplicity 1
 C        -0.117290        -0.030139         0.031353
 C         1.447326         0.032195        -0.098790
 C         2.517115         0.669491         0.781462
 C         3.227697         0.335610        -0.612402
 C         1.981237         0.852043        -1.359013
 O         4.612456         0.368868        -0.911345
 C         4.568657        -1.112755        -0.445329
 C         3.098296        -1.197619        -0.915879
 O         1.897187        -1.464927        -0.184562
 H        -0.382662        -1.015187        -0.425484
 H        -0.304112        -0.078424         1.107438
 H        -0.621420         0.801250        -0.384419
 H         2.478870         1.772034         0.860365
 H         2.853867         0.069564         1.609732
 H         1.845187         1.891655        -1.277280
 H         1.916979         0.508054        -2.409697
 H         5.222927        -1.810706        -1.087204
 H         4.825291        -1.177009         0.614684
 H         2.902657        -1.584629        -1.901989
