19
Iteration:  4960
 C        -0.155183         0.040198         0.190729
 C         1.368357         0.054022        -0.172033
 C         2.477743         0.525466         0.704796
 C         3.213883         0.399807        -0.675826
 C         2.028211         0.763232        -1.438387
 O         4.674684         0.332776        -0.819640
 C         4.626198        -1.083285        -0.366123
 C         3.156856        -1.130091        -0.859842
 O         1.847016        -1.457856        -0.301925
 H        -0.566236        -0.637384        -0.581901
 H        -0.468637        -0.178042         1.188655
 H        -0.494000         0.989690        -0.026133
 H         2.323593         1.546379         0.956655
 H         2.792341        -0.265288         1.413385
 H         1.959885         1.829752        -1.373107
 H         1.761045         0.468341        -2.427248
 H         5.358839        -1.708760        -0.869546
 H         4.866127        -1.054819         0.710629
 H         3.096368        -1.397163        -1.900732
