19
Iteration:  2993
 C        -0.102810        -0.029780         0.227736
 C         1.353803        -0.069015        -0.190308
 C         2.444830         0.595538         0.695020
 C         3.207161         0.420861        -0.617684
 C         1.956327         0.864197        -1.403991
 O         4.765325         0.284823        -0.799636
 C         4.582433        -1.189381        -0.458710
 C         3.151050        -1.057928        -0.908842
 O         1.882652        -1.388316        -0.323612
 H        -0.073281        -0.378216         1.236707
 H        -0.689966         0.929181        -0.009876
 H        -0.670179        -0.725035        -0.388414
 H         2.201741         1.609596         1.092019
 H         2.760605         0.044964         1.560150
 H         1.618271         1.882737        -1.132424
 H         1.816509         0.465337        -2.512731
 H         5.330959        -1.778814        -0.955308
 H         4.741974        -1.154594         0.661436
 H         3.057137        -1.229785        -1.956440
