19
Iteration:  1081charge 0 multiplicity 1
 C        -0.080633        -0.086520         0.140575
 C         1.353751        -0.009414        -0.135448
 C         2.591987         0.542424         0.806511
 C         3.260974         0.438792        -0.641728
 C         1.979313         1.003483        -1.317865
 O         4.738275         0.224180        -0.734641
 C         4.520691        -1.208553        -0.517238
 C         3.117743        -1.042472        -0.953777
 O         1.775180        -1.378975        -0.408471
 H        -0.216429        -0.414563         1.180597
 H        -0.598684         0.836071        -0.287989
 H        -0.417527        -0.926084        -0.426975
 H         2.407453         1.600438         1.187751
 H         2.916206         0.057797         1.803741
 H         1.807053         1.991237        -0.935811
 H         1.628132         0.701721        -2.300900
 H         5.056277        -1.773934        -1.281377
 H         4.738088        -1.521678         0.518259
 H         3.108826        -1.301606        -1.997430
