19
Iteration:  1835
 C        -0.008036        -0.017794         0.320866
 C         1.393363        -0.038745        -0.140866
 C         2.465398         0.589249         0.656206
 C         3.236353         0.324829        -0.682667
 C         1.985984         0.905869        -1.383402
 O         4.701952         0.320579        -0.706637
 C         4.583941        -1.112306        -0.381217
 C         3.155672        -1.163973        -1.003669
 O         1.765393        -1.418331        -0.475568
 H        -0.096195        -0.753692         1.046397
 H        -0.296014         1.047226         0.756092
 H        -0.817930        -0.262237        -0.416369
 H         2.397309         1.625524         0.827648
 H         2.670154        -0.000760         1.531942
 H         1.720430         1.944056        -0.945766
 H         1.996328         1.079293        -2.505919
 H         5.301428        -1.675091        -0.958395
 H         4.565625        -1.550886         0.663257
 H         2.899764        -1.314763        -1.968746
