19
Iteration:  4739
 C        -0.021043         0.028449         0.352433
 C         1.348207        -0.074834        -0.251211
 C         2.504255         0.687103         0.567644
 C         3.201221         0.348748        -0.742804
 C         1.938082         0.850019        -1.391393
 O         4.758414         0.294816        -0.716751
 C         4.508612        -1.070661        -0.256938
 C         3.143012        -1.148941        -0.974649
 O         1.828900        -1.504191        -0.440274
 H        -0.562454        -0.869103         0.083944
 H         0.157951        -0.089490         1.428891
 H        -0.644906         0.862264        -0.117626
 H         2.322530         1.802757         0.945177
 H         2.932320         0.278968         1.551621
 H         1.560038         1.784392        -0.943524
 H         1.743647         0.677223        -2.457455
 H         5.455623        -1.578059        -0.667497
 H         4.523477        -1.125698         0.890939
 H         3.216346        -1.414695        -2.104900
