19
Iteration:   978charge 0 multiplicity 1
 C        -0.093245        -0.021684         0.235471
 C         1.309525        -0.013195        -0.197227
 C         2.568322         0.481301         0.730753
 C         3.219089         0.362112        -0.659075
 C         1.973261         0.987168        -1.350788
 O         4.693334         0.297092        -0.750374
 C         4.564099        -1.208056        -0.444579
 C         3.147699        -1.099115        -0.960876
 O         1.827077        -1.367824        -0.396177
 H        -0.174604        -1.020736         0.626925
 H        -0.052694         0.608380         1.081981
 H        -0.814484         0.286280        -0.571321
 H         2.524076         1.524806         1.022317
 H         2.847410        -0.205501         1.498126
 H         1.616885         1.978641        -1.076811
 H         1.759774         1.002883        -2.397101
 H         5.399948        -1.772681        -0.897583
 H         4.718977        -1.379231         0.620603
 H         3.149966        -1.329805        -2.066739
