19
Iteration:   585
 C        -0.145229        -0.002871         0.197673
 C         1.414932         0.062202        -0.072131
 C         2.617745         0.498584         0.731601
 C         3.256568         0.327772        -0.692308
 C         1.957327         0.923271        -1.305341
 O         4.706190         0.398471        -0.754554
 C         4.530174        -1.145291        -0.451734
 C         3.082098        -1.210225        -1.016847
 O         1.860389        -1.425039        -0.385034
 H        -0.425610        -0.936859         0.591105
 H        -0.460593         0.742464         0.857247
 H        -0.640453         0.236291        -0.838272
 H         2.746645         1.582651         1.025376
 H         2.626795        -0.129089         1.655104
 H         1.716384         1.926588        -1.209852
 H         1.651080         0.507626        -2.279893
 H         5.164911        -1.841335        -1.049588
 H         4.584586        -1.318648         0.605441
 H         2.982376        -1.359551        -2.070468
