19
Iteration:  2894
 C        -0.140449        -0.040555         0.183280
 C         1.354999         0.065036        -0.096146
 C         2.476638         0.631639         0.730770
 C         3.240081         0.343694        -0.646028
 C         1.918756         0.818626        -1.431495
 O         4.766975         0.302474        -0.754223
 C         4.655402        -1.117538        -0.478166
 C         3.127519        -1.146992        -0.911634
 O         1.848768        -1.398947        -0.344634
 H        -0.409742        -1.066312         0.464421
 H        -0.444430         0.689765         1.049530
 H        -0.657009         0.204433        -0.754059
 H         2.357460         1.701796         0.960640
 H         2.816761         0.240226         1.642452
 H         1.495944         1.841570        -1.394645
 H         1.896985         0.209812        -2.407371
 H         5.331743        -1.717898        -1.113109
 H         4.740614        -1.420076         0.614960
 H         2.998655        -1.360722        -1.942576
