19
Iteration:   868charge 0 multiplicity 1
 C        -0.035134         0.087076         0.331827
 C         1.326218         0.011603        -0.129574
 C         2.593114         0.388034         0.749520
 C         3.181422         0.374092        -0.617940
 C         1.969503         0.897100        -1.383190
 O         4.676137         0.316681        -0.762525
 C         4.580091        -1.145412        -0.369918
 C         3.148891        -1.074686        -0.959806
 O         1.789042        -1.381423        -0.581526
 H        -0.184852        -0.185773         1.356232
 H        -0.710790         0.854470         0.001254
 H        -0.635423        -0.830358        -0.239309
 H         2.550864         1.271665         1.408387
 H         2.890717        -0.319315         1.549614
 H         1.774615         1.999848        -1.568768
 H         1.808968         0.469205        -2.385820
 H         5.324382        -1.706150        -1.020479
 H         4.831994        -1.287569         0.746050
 H         3.303556        -1.255244        -2.056231
