19
Iteration:   703charge 0 multiplicity 1
 C        -0.094464        -0.093892         0.339832
 C         1.327140         0.075259        -0.195531
 C         2.497069         0.594598         0.740337
 C         3.199308         0.330911        -0.636790
 C         1.950537         0.956614        -1.299223
 O         4.725682         0.227630        -0.751872
 C         4.625283        -1.230474        -0.406916
 C         3.175556        -1.096687        -1.069626
 O         1.826859        -1.334364        -0.506070
 H         0.047609        -0.425239         1.349972
 H        -0.664108         0.859592         0.352309
 H        -0.737871        -0.804671        -0.229492
 H         2.357780         1.677772         0.943474
 H         2.735657         0.235677         1.730048
 H         1.696095         1.984751        -1.221641
 H         1.692132         0.511629        -2.315593
 H         5.435522        -1.640211        -0.946830
 H         4.716726        -1.484885         0.684628
 H         3.284857        -1.219476        -2.149251
