19
Iteration:  1233
 C        -0.189529        -0.048579         0.211463
 C         1.248190         0.076212        -0.138259
 C         2.458140         0.545028         0.745991
 C         3.305411         0.375235        -0.653776
 C         2.021860         0.957899        -1.318403
 O         4.737216         0.286848        -0.729027
 C         4.638293        -1.230178        -0.549053
 C         3.143946        -1.114799        -0.982805
 O         1.867309        -1.419038        -0.360530
 H        -0.463339        -0.468793         1.245100
 H        -0.463269         1.139884         0.430610
 H        -0.708734        -0.508111        -0.617645
 H         2.524512         1.635458         0.933420
 H         2.868890        -0.037450         1.636529
 H         1.918646         2.002784        -1.167135
 H         1.777809         0.724598        -2.350882
 H         5.306539        -1.836693        -1.127807
 H         4.711841        -1.489433         0.515450
 H         2.911212        -1.355053        -2.102904
