19
Iteration:  2881
 C        -0.096602        -0.039418         0.108626
 C         1.374136        -0.014955        -0.094486
 C         2.561298         0.707672         0.682568
 C         3.222939         0.356094        -0.676196
 C         1.999980         0.833078        -1.327156
 O         4.597688         0.317369        -0.737968
 C         4.604145        -1.177304        -0.476408
 C         3.147277        -1.113782        -0.904182
 O         1.836671        -1.431695        -0.302772
 H        -0.147589        -1.114796         0.508854
 H        -0.647377         0.596579         0.820803
 H        -0.735718         0.051221        -0.781542
 H         2.392524         1.781115         0.654724
 H         2.911983         0.206746         1.623657
 H         2.020479         1.959190        -1.242965
 H         1.571596         0.608015        -2.318058
 H         5.306013        -1.689355        -1.205479
 H         4.973372        -1.358386         0.522018
 H         3.213285        -1.404302        -1.933653
