19
Iteration:   159
 C        -0.015599        -0.048164         0.249603
 C         1.401765        -0.054728        -0.070126
 C         2.439934         0.586695         0.713514
 C         3.200069         0.421894        -0.695701
 C         1.892605         0.976112        -1.392899
 O         4.768248         0.186535        -0.707827
 C         4.593263        -1.240946        -0.498958
 C         3.118705        -1.010837        -0.995274
 O         1.838864        -1.351184        -0.350114
 H        -0.277585        -1.114916         0.437236
 H        -0.344445         0.658403         1.137457
 H        -0.619058         0.210737        -0.725455
 H         2.369687         1.708272         0.742037
 H         2.890326        -0.017666         1.560830
 H         1.496590         2.083112        -1.145280
 H         1.657831         0.518782        -2.385164
 H         5.213705        -1.807881        -1.192130
 H         4.813089        -1.453358         0.604046
 H         3.090109        -1.287731        -2.081128
