19
Iteration:   535
 C        -0.055003        -0.000910         0.357350
 C         1.351913         0.031911        -0.182270
 C         2.469057         0.513572         0.681570
 C         3.302894         0.399895        -0.642066
 C         2.023635         0.859895        -1.326987
 O         4.707340         0.307059        -0.755272
 C         4.478978        -1.217806        -0.436975
 C         3.101074        -1.053549        -0.983848
 O         1.831767        -1.407457        -0.502184
 H         0.234727        -0.766173         1.144127
 H        -0.565419         0.839130         0.863111
 H        -0.721528        -0.400706        -0.364343
 H         2.368562         1.572747         0.893916
 H         2.683098         0.059993         1.638882
 H         2.011504         1.993644        -1.259616
 H         1.857546         0.515881        -2.357560
 H         5.323631        -1.780835        -0.867980
 H         4.565020        -1.362048         0.665337
 H         3.114396        -1.037683        -2.102692
