19
Iteration:  2816
 C        -0.061765         0.079202         0.225760
 C         1.382715        -0.121327        -0.220898
 C         2.575822         0.570498         0.743048
 C         3.162593         0.315718        -0.679425
 C         1.971061         0.854979        -1.302846
 O         4.638887         0.337096        -0.783723
 C         4.676958        -1.040767        -0.342958
 C         3.183329        -1.131287        -0.911301
 O         1.744115        -1.474083        -0.504571
 H        -0.080514         0.090952         1.368366
 H        -0.527651         1.020081        -0.054342
 H        -0.560779        -0.841792        -0.043678
 H         2.269692         1.614246         0.789720
 H         2.879894         0.063614         1.694341
 H         1.645841         1.920262        -1.065985
 H         1.679346         0.531164        -2.341181
 H         5.398404        -1.714948        -0.926584
 H         4.800988        -1.059150         0.749207
 H         3.244570        -1.338293        -1.958702
