19
Iteration:  1861charge 0 multiplicity 1
 C        -0.130746        -0.014748         0.240046
 C         1.324308         0.127707        -0.129776
 C         2.522255         0.485978         0.681956
 C         3.263764         0.413078        -0.606750
 C         1.950033         0.875682        -1.357516
 O         4.693569         0.265303        -0.716511
 C         4.584260        -1.178009        -0.479178
 C         3.178085        -1.062733        -0.904868
 O         1.870519        -1.403230        -0.430141
 H        -0.276529        -0.459868         1.274768
 H        -0.614009         0.870022         0.177307
 H        -0.737300        -0.640620        -0.437198
 H         2.550147         1.564901         1.037680
 H         2.807576        -0.283757         1.446757
 H         1.597284         1.856145        -1.547206
 H         1.993134         0.428462        -2.370299
 H         5.128681        -1.669831        -1.335864
 H         4.788020        -1.587543         0.526568
 H         3.006707        -1.206053        -2.005758
