19
Iteration:  2600
 C        -0.158393        -0.076119         0.264990
 C         1.340426         0.034647        -0.207082
 C         2.466496         0.615659         0.654805
 C         3.287900         0.362718        -0.697848
 C         1.902051         0.844817        -1.383339
 O         4.753556         0.244158        -0.799327
 C         4.593322        -1.152271        -0.334140
 C         3.155676        -1.083625        -0.954056
 O         1.876180        -1.375541        -0.369782
 H        -0.127013        -0.542411         1.314353
 H        -0.285057         0.999840         0.425390
 H        -0.919659        -0.488056        -0.385380
 H         2.201275         1.661876         0.894496
 H         2.821743         0.146352         1.594649
 H         1.726430         1.936927        -1.290861
 H         1.547739         0.500526        -2.337145
 H         5.523860        -1.741858        -0.562184
 H         4.679536        -1.031041         0.719755
 H         3.277818        -1.469111        -2.051302
