19
Iteration:   762charge 0 multiplicity 1
 C        -0.138441         0.162223         0.200030
 C         1.308715         0.071931        -0.135272
 C         2.491338         0.412608         0.759675
 C         3.256072         0.264067        -0.674159
 C         1.950726         0.892623        -1.236411
 O         4.683517         0.380638        -0.843916
 C         4.585802        -1.096684        -0.442485
 C         3.180287        -1.162038        -0.932108
 O         1.929784        -1.511377        -0.412397
 H        -0.569854        -0.740813         0.626396
 H        -0.315136         0.981578         0.869798
 H        -0.522823         0.255373        -0.788979
 H         2.253149         1.517763         0.741869
 H         2.665217        -0.345796         1.586274
 H         1.720977         1.954887        -0.905087
 H         1.620786         0.685058        -2.214344
 H         5.340921        -1.672528        -1.111698
 H         4.803114        -1.354226         0.573631
 H         3.150921        -1.305410        -2.006689
