19
Iteration:  4101charge 0 multiplicity 1
 C        -0.087276        -0.020127         0.405742
 C         1.305523         0.022054        -0.199385
 C         2.505017         0.489994         0.626307
 C         3.156812         0.449083        -0.756452
 C         1.856572         0.767066        -1.503388
 O         4.815940         0.291205        -0.817810
 C         4.632473        -1.076807        -0.198359
 C         3.213320        -1.028082        -0.873878
 O         1.824646        -1.400020        -0.459101
 H        -0.793088        -0.899033         0.162275
 H        -0.183851         0.042028         1.531108
 H        -0.709941         0.857433         0.013273
 H         2.452570         1.627927         0.855849
 H         2.913879        -0.253889         1.337905
 H         1.579867         1.774198        -1.620772
 H         1.766943         0.285494        -2.497055
 H         5.327364        -1.708230        -0.703905
 H         4.722035        -1.296525         0.925047
 H         3.258677        -1.498034        -1.844638
