19
Iteration:  4151charge 0 multiplicity 1
 C        -0.148902        -0.066515         0.126409
 C         1.401327        -0.008061        -0.092352
 C         2.547647         0.676687         0.721688
 C         3.214309         0.362488        -0.699549
 C         1.967219         0.832578        -1.440441
 O         4.662407         0.324480        -0.834799
 C         4.644699        -1.100280        -0.440585
 C         3.118950        -1.168316        -0.841341
 O         1.882128        -1.418842        -0.221455
 H        -0.685779        -0.570101        -0.613743
 H        -0.517722        -0.578956         0.980428
 H        -0.593794         0.904154         0.084944
 H         2.339147         1.673604         0.751290
 H         2.836614         0.104171         1.556443
 H         1.692797         1.912396        -1.408473
 H         1.721854         0.422635        -2.426152
 H         5.293396        -1.751379        -0.998708
 H         4.892677        -1.100120         0.620710
 H         2.939909        -1.425534        -1.903138
