19
Iteration:   907charge 0 multiplicity 1
 C        -0.121377         0.070021         0.210724
 C         1.384039        -0.120615        -0.151280
 C         2.525134         0.439657         0.739433
 C         3.176000         0.369157        -0.690184
 C         1.974330         1.056797        -1.277315
 O         4.730639         0.356351        -0.750963
 C         4.613917        -1.172548        -0.482957
 C         3.136422        -1.099818        -0.934995
 O         1.799933        -1.498422        -0.413150
 H        -0.282450        -0.153618         1.291658
 H        -0.364463         1.145591        -0.003502
 H        -0.645444        -0.475949        -0.455834
 H         2.358935         1.498040         0.992237
 H         3.083050        -0.200533         1.441652
 H         1.708032         2.074430        -1.015295
 H         1.847275         1.001847        -2.403752
 H         5.144904        -1.912220        -1.013719
 H         4.842291        -1.408551         0.556895
 H         3.125253        -1.388495        -1.983140
