19
Iteration:  2941charge 0 multiplicity 1
 C        -0.025258         0.016542         0.318059
 C         1.395717        -0.073006        -0.156667
 C         2.558078         0.571680         0.617848
 C         3.262225         0.291669        -0.727037
 C         1.952328         0.913124        -1.395548
 O         4.603212         0.360757        -0.761219
 C         4.575484        -1.004287        -0.235670
 C         3.138740        -1.188230        -1.011432
 O         1.779398        -1.503277        -0.469740
 H        -0.400576        -0.878350         0.804248
 H         0.018640         0.840220         1.126601
 H        -0.676924         0.308523        -0.590528
 H         2.623111         1.645898         0.739881
 H         2.698678         0.258494         1.677992
 H         1.908688         1.995149        -1.186068
 H         1.752553         0.371422        -2.347807
 H         5.446175        -1.550991        -0.607122
 H         4.646777        -0.884358         0.901459
 H         3.136875        -1.737718        -2.004226
