19
Iteration:  2921
 C        -0.100978         0.076264         0.314806
 C         1.326411        -0.034808        -0.206758
 C         2.464996         0.499956         0.611150
 C         3.220680         0.405776        -0.717680
 C         1.901915         0.821264        -1.480156
 O         4.705508         0.311974        -0.785643
 C         4.599465        -1.109813        -0.309383
 C         3.241529        -1.067938        -0.857230
 O         1.872359        -1.447049        -0.390985
 H        -0.231653        -0.988664         0.613721
 H        -0.167954         0.748141         1.170498
 H        -0.912237         0.479790        -0.371632
 H         2.255901         1.439286         1.127765
 H         2.979483        -0.090429         1.443836
 H         1.657473         1.825824        -1.126282
 H         1.812864         0.539225        -2.488005
 H         5.270484        -1.795837        -0.844376
 H         4.663482        -1.332393         0.748047
 H         3.149285        -1.328021        -1.968498
