19
Iteration:  3473charge 0 multiplicity 1
 C        -0.072439        -0.007645         0.275706
 C         1.369692        -0.042717        -0.156926
 C         2.479700         0.645733         0.684198
 C         3.171056         0.318050        -0.681177
 C         1.970928         0.791781        -1.443189
 O         4.631252         0.354099        -0.795200
 C         4.722736        -1.060146        -0.396481
 C         3.148052        -1.160143        -0.855624
 O         1.810701        -1.401824        -0.371407
 H        -0.481431        -0.974140        -0.059768
 H        -0.180737         0.151185         1.305532
 H        -0.599092         0.781185        -0.315674
 H         2.319600         1.695264         0.936710
 H         2.888030         0.023017         1.507467
 H         1.695709         1.860793        -1.343704
 H         1.913292         0.441261        -2.434902
 H         5.421922        -1.681211        -1.070582
 H         4.925299        -1.339889         0.669254
 H         3.114839        -1.586526        -1.903382
