19
Iteration:   574charge 0 multiplicity 1
 C        -0.162191        -0.045426         0.245472
 C         1.297013         0.100090        -0.100504
 C         2.620146         0.547394         0.638167
 C         3.287592         0.349198        -0.697385
 C         1.900522         0.897572        -1.283373
 O         4.739035         0.308186        -0.721253
 C         4.554358        -1.203608        -0.439565
 C         3.112494        -1.062650        -0.976862
 O         1.853419        -1.433975        -0.401084
 H        -0.504229        -0.980089         0.559302
 H        -0.479681         0.716793         0.895341
 H        -0.721490         0.145778        -0.778627
 H         2.664087         1.632499         0.940464
 H         3.130378        -0.121145         1.370506
 H         1.799736         1.909284        -1.068873
 H         1.659162         0.698624        -2.342454
 H         5.303702        -1.711313        -1.096223
 H         4.730604        -1.451741         0.590632
 H         3.188610        -1.392291        -1.998574
