19
Iteration:  2172charge 0 multiplicity 1
 C        -0.065530         0.077466         0.288630
 C         1.421857        -0.046999        -0.145872
 C         2.517814         0.528768         0.740156
 C         3.251047         0.332259        -0.680775
 C         1.928578         0.929060        -1.367922
 O         4.627125         0.323926        -0.803800
 C         4.627366        -1.149799        -0.284967
 C         3.121123        -1.121865        -0.898285
 O         1.818030        -1.444741        -0.547380
 H        -0.319273        -0.779059         0.728931
 H        -0.508897         0.937308         0.775346
 H        -0.586208         0.022250        -0.701649
 H         2.505558         1.650004         0.907797
 H         2.877868        -0.107537         1.584138
 H         1.722667         1.930739        -1.274173
 H         1.889098         0.569122        -2.374125
 H         5.233173        -1.760397        -0.954207
 H         4.861251        -1.323664         0.779316
 H         3.142050        -1.369955        -1.925307
