19
Iteration:   416
 C        -0.159145        -0.043761         0.241284
 C         1.367306         0.037899        -0.056119
 C         2.558072         0.573453         0.703505
 C         3.298416         0.338365        -0.658565
 C         1.884064         0.990815        -1.364849
 O         4.737605         0.298952        -0.652025
 C         4.592814        -1.219630        -0.510494
 C         3.085531        -1.137251        -1.024798
 O         1.877123        -1.371664        -0.422486
 H        -0.450745        -1.026688         0.843699
 H        -0.593318         0.914213         0.716929
 H        -0.703960         0.010266        -0.713040
 H         2.552332         1.668130         0.963475
 H         2.785700        -0.143324         1.532122
 H         1.865077         2.156415        -1.180786
 H         1.802927         0.494366        -2.368399
 H         5.248806        -1.632779        -1.303708
 H         4.687534        -1.701548         0.509733
 H         3.018939        -1.626581        -2.020556
