19
Iteration:  3263
 C        -0.086430        -0.033547         0.422753
 C         1.364108        -0.033387        -0.244312
 C         2.582704         0.675311         0.565310
 C         3.245163         0.378406        -0.808774
 C         1.857098         0.729804        -1.536759
 O         4.732852         0.354247        -0.719843
 C         4.554828        -1.097441        -0.219284
 C         3.210717        -1.140266        -0.920026
 O         1.806229        -1.355947        -0.349993
 H        -0.830962        -0.022407        -0.319421
 H        -0.161140        -1.161354         0.649076
 H        -0.466906         0.514207         1.253955
 H         2.489841         1.777522         0.526352
 H         2.863068         0.053588         1.408613
 H         1.503735         1.745240        -1.552719
 H         1.695843         0.246580        -2.554328
 H         5.375328        -1.651752        -0.603903
 H         4.515716        -1.236405         0.915548
 H         3.224427        -1.552952        -1.971177
