19
Iteration:   679charge 0 multiplicity 1
 C        -0.077843        -0.111517         0.349709
 C         1.347674        -0.046310        -0.163374
 C         2.523264         0.596791         0.656394
 C         3.264759         0.430860        -0.710583
 C         2.012531         0.987426        -1.400354
 O         4.801114         0.277905        -0.670176
 C         4.447937        -1.211643        -0.433052
 C         3.078208        -1.032062        -1.015500
 O         1.832686        -1.407156        -0.430091
 H         0.077275        -0.258330         1.497859
 H        -0.698803         0.851797         0.080448
 H        -0.584373        -0.955590        -0.103766
 H         2.318100         1.446043         1.263137
 H         2.800414        -0.162183         1.367642
 H         1.731660         2.007658        -1.098249
 H         1.750026         0.763280        -2.492181
 H         5.096602        -1.714898        -1.121564
 H         4.723132        -1.556536         0.667507
 H         3.060266        -1.288982        -2.115774
