19
Iteration:  3366
 C        -0.118654        -0.006820         0.122725
 C         1.381003        -0.043055        -0.139330
 C         2.454942         0.681009         0.659872
 C         3.261154         0.386602        -0.683380
 C         1.957787         0.774830        -1.468994
 O         4.696652         0.311709        -0.862723
 C         4.611072        -1.078173        -0.464204
 C         3.152231        -1.134810        -0.787589
 O         1.888266        -1.449574        -0.153135
 H        -0.726419         0.066652        -0.804584
 H        -0.409380        -0.961377         0.479227
 H        -0.493231         0.687359         0.866363
 H         2.203510         1.714333         0.886003
 H         2.774902         0.263690         1.619547
 H         1.504331         1.736110        -1.164278
 H         1.881845         0.553912        -2.506710
 H         5.311611        -1.774588        -0.999633
 H         4.762167        -1.142864         0.598858
 H         3.013468        -1.469544        -1.843599
