19
Iteration:  1305charge 0 multiplicity 1
 C        -0.116591         0.004647         0.283212
 C         1.384557         0.013644        -0.209445
 C         2.538758         0.472274         0.716781
 C         3.236934         0.333844        -0.682110
 C         1.941030         0.980981        -1.278125
 O         4.715351         0.268553        -0.794641
 C         4.608113        -1.131592        -0.378883
 C         3.167421        -1.152849        -0.980548
 O         1.809231        -1.393137        -0.470547
 H        -0.168404        -0.067967         1.389167
 H        -0.522057         0.937988         0.170583
 H        -0.655959        -0.786384        -0.243486
 H         2.436395         1.499130         1.030774
 H         2.493851        -0.284142         1.467939
 H         1.714387         2.082978        -1.104236
 H         1.614416         0.905690        -2.362017
 H         5.490754        -1.714192        -0.737587
 H         4.584879        -1.119306         0.734879
 H         3.069119        -1.292225        -2.019064
