19
Iteration:  4707
 C        -0.122775         0.023707         0.239695
 C         1.288277        -0.001133        -0.228589
 C         2.550286         0.523368         0.736734
 C         3.232063         0.377702        -0.715646
 C         1.988367         0.730077        -1.449587
 O         4.718677         0.372547        -0.851497
 C         4.618951        -1.076757        -0.276482
 C         3.162316        -1.145319        -0.856400
 O         1.799437        -1.367644        -0.374032
 H        -0.693227        -0.591460        -0.435478
 H        -0.216580        -0.423219         1.249398
 H        -0.532922         1.019921         0.517253
 H         2.630378         1.549501         1.273773
 H         2.802163        -0.388248         1.337119
 H         1.683990         1.774268        -1.458131
 H         1.773850         0.404094        -2.467853
 H         5.294120        -1.665803        -0.956122
 H         4.759358        -1.045114         0.859844
 H         3.168196        -1.463619        -1.970254
