19
Iteration:  3563charge 0 multiplicity 1
 C        -0.144362        -0.005057         0.298455
 C         1.325460        -0.014988        -0.183263
 C         2.452112         0.531581         0.617621
 C         3.195529         0.283850        -0.819306
 C         1.898384         0.845824        -1.395608
 O         4.727209         0.289397        -0.850971
 C         4.785589        -0.992693        -0.278313
 C         3.153746        -1.193722        -0.823077
 O         1.850349        -1.338363        -0.351360
 H        -0.896051         0.100058        -0.527497
 H        -0.321659        -0.938443         0.848481
 H        -0.427381         0.796663         0.909495
 H         2.316534         1.668339         0.594334
 H         2.778857         0.331930         1.645091
 H         1.689697         1.861878        -1.260940
 H         1.595527         0.467615        -2.408208
 H         5.551674        -1.700787        -0.799447
 H         4.765408        -1.174327         0.845791
 H         3.281171        -1.663391        -1.869987
