19
Iteration:  4294charge 0 multiplicity 1
 C        -0.120391        -0.038485         0.212872
 C         1.326456        -0.024896        -0.162484
 C         2.565160         0.573945         0.646475
 C         3.253726         0.359317        -0.714942
 C         1.873211         0.858170        -1.527256
 O         4.726208         0.335181        -0.776351
 C         4.649427        -1.094199        -0.356960
 C         3.100054        -1.128156        -0.934623
 O         1.877000        -1.399549        -0.200046
 H        -0.801357        -0.808143        -0.122890
 H        -0.086285        -0.089737         1.315615
 H        -0.560334         0.962860        -0.064777
 H         2.441865         1.563730         1.107084
 H         2.786684        -0.155499         1.411448
 H         1.633942         1.915206        -1.611290
 H         1.657551         0.357369        -2.539316
 H         5.362104        -1.671715        -0.845833
 H         4.717642        -1.134199         0.736686
 H         2.999028        -1.552391        -1.976068
