19
Iteration:   503charge 0 multiplicity 1
 C        -0.039137         0.079915         0.260949
 C         1.382497        -0.041215        -0.085781
 C         2.545313         0.373938         0.651843
 C         3.244298         0.386629        -0.771293
 C         1.908186         0.983011        -1.312944
 O         4.731990         0.331979        -0.720177
 C         4.615372        -1.151133        -0.384333
 C         3.108250        -1.107393        -0.919682
 O         1.746614        -1.419819        -0.497809
 H        -0.204069        -0.344650         1.309737
 H        -0.416408         1.124167         0.080336
 H        -0.539079        -0.757139        -0.137700
 H         2.455943         1.414422         0.961080
 H         2.844639        -0.371339         1.383259
 H         1.912010         2.093206        -0.943757
 H         1.618225         0.856977        -2.380772
 H         5.293998        -1.700389        -1.054147
 H         4.688619        -1.299145         0.717421
 H         3.079042        -1.471203        -1.974968
