19
Iteration:  1558charge 0 multiplicity 1
 C        -0.124840         0.016836         0.154905
 C         1.306538         0.007367        -0.094433
 C         2.593218         0.436664         0.728165
 C         3.231402         0.335062        -0.635262
 C         1.902125         0.958648        -1.249944
 O         4.700729         0.296391        -0.892424
 C         4.676015        -1.169600        -0.414086
 C         3.164883        -1.056078        -0.881337
 O         1.800822        -1.404918        -0.445337
 H        -0.663786        -0.851523         0.656635
 H        -0.363884         0.832271         0.734007
 H        -0.568899         0.166911        -0.845306
 H         2.482219         1.426973         1.100711
 H         2.928088        -0.067641         1.618903
 H         1.546252         1.915366        -0.794663
 H         1.656712         0.733070        -2.343685
 H         5.442759        -1.653175        -1.058014
 H         4.902448        -1.275520         0.654473
 H         3.190738        -1.414773        -1.878101
