19
Iteration:   338charge 0 multiplicity 1
 C        -0.039853         0.043196         0.234210
 C         1.416927         0.021780        -0.136211
 C         2.586452         0.405098         0.747627
 C         3.201189         0.325074        -0.658939
 C         1.922678         1.008335        -1.338979
 O         4.624965         0.274637        -0.762240
 C         4.671823        -1.105279        -0.361673
 C         3.106518        -1.134983        -0.957555
 O         1.752003        -1.378455        -0.510715
 H        -0.359861        -0.784160         0.996062
 H        -0.331862         1.018040         0.543236
 H        -0.581111        -0.349882        -0.626132
 H         2.715217         1.397963         1.070391
 H         3.005097        -0.263499         1.456443
 H         1.606001         2.006696        -1.029759
 H         1.604232         0.700659        -2.433839
 H         5.424859        -1.742796        -0.928375
 H         4.866563        -1.148641         0.711591
 H         3.194108        -1.506143        -1.995694
