19
Iteration:  1735charge 0 multiplicity 1
 C        -0.083621        -0.043145         0.135767
 C         1.335490         0.010817        -0.177684
 C         2.521333         0.462046         0.789077
 C         3.247370         0.389119        -0.635356
 C         1.985028         0.849793        -1.325003
 O         4.766743         0.308793        -0.703517
 C         4.540875        -1.184810        -0.583639
 C         3.112470        -0.986403        -0.965528
 O         1.828683        -1.367063        -0.291640
 H        -0.320768        -0.419600         1.181872
 H        -0.511938         1.061582         0.108129
 H        -0.624250        -0.619428        -0.600554
 H         2.427584         1.490215         1.146385
 H         2.890545        -0.242150         1.542675
 H         1.530285         1.930844        -1.218091
 H         1.794837         0.676532        -2.453339
 H         5.255329        -1.663211        -1.356919
 H         4.916140        -1.514893         0.416684
 H         2.781900        -1.310535        -1.946785
