19
Iteration:   375charge 0 multiplicity 1
 C        -0.069205         0.058491         0.339570
 C         1.383713        -0.002096        -0.191084
 C         2.473680         0.406364         0.788828
 C         3.214290         0.361507        -0.716401
 C         1.981687         0.965648        -1.359649
 O         4.675334         0.290825        -0.829662
 C         4.562503        -1.142498        -0.336662
 C         3.164051        -1.138309        -0.948055
 O         1.858810        -1.414581        -0.554184
 H        -0.317665        -0.840089         0.917487
 H        -0.213991         0.874178         1.155911
 H        -0.720544         0.491420        -0.432992
 H         2.362163         1.530260         1.110607
 H         2.603431        -0.295197         1.702228
 H         1.532601         2.037401        -1.198864
 H         1.861000         0.735921        -2.406153
 H         5.341821        -1.803593        -0.690603
 H         4.670250        -1.074370         0.788674
 H         3.376434        -1.366415        -1.994962
