19
Iteration:  3156charge 0 multiplicity 1
 C        -0.063479        -0.044818         0.153358
 C         1.404777        -0.083920        -0.153157
 C         2.449607         0.695217         0.697371
 C         3.165667         0.379319        -0.703624
 C         1.979138         0.838283        -1.368369
 O         4.739915         0.330518        -0.783789
 C         4.619396        -1.084336        -0.423772
 C         3.135288        -1.173159        -0.967056
 O         1.791461        -1.460000        -0.252864
 H        -0.359984        -1.061845         0.248790
 H        -0.180870         0.520526         1.166109
 H        -0.556265         0.584530        -0.623553
 H         2.251448         1.809591         0.785979
 H         2.872682         0.488709         1.687230
 H         1.476376         1.779448        -1.122576
 H         2.019960         0.313702        -2.368123
 H         5.345969        -1.672167        -0.902150
 H         4.767788        -1.151351         0.688141
 H         3.144507        -1.439017        -2.046731
