19
Iteration:  1022
 C        -0.069663         0.087111         0.309494
 C         1.342917        -0.089883        -0.240591
 C         2.609198         0.437749         0.732675
 C         3.250854         0.372778        -0.630181
 C         1.880821         0.925056        -1.293810
 O         4.647956         0.314693        -0.761069
 C         4.675801        -1.168060        -0.312751
 C         3.143937        -1.073929        -0.972513
 O         1.771220        -1.414950        -0.567954
 H        -0.465456        -0.453702         1.136901
 H        -0.042614         1.045995         0.771669
 H        -0.785872         0.095400        -0.543977
 H         2.441552         1.474969         0.896416
 H         2.869221        -0.269628         1.422820
 H         1.667339         1.964248        -1.203965
 H         1.615117         0.751267        -2.310103
 H         5.358610        -1.791568        -0.904036
 H         4.962140        -1.375223         0.714193
 H         3.232961        -1.307347        -2.086805
