19
Iteration:  4543
 C        -0.120554        -0.040801         0.293298
 C         1.358944         0.045275        -0.166628
 C         2.473520         0.618404         0.620147
 C         3.286158         0.286554        -0.668877
 C         1.954277         0.804914        -1.328865
 O         4.684791         0.326236        -0.753653
 C         4.688261        -1.078368        -0.374484
 C         3.119736        -1.192143        -0.955554
 O         1.811853        -1.374209        -0.399957
 H        -0.592227        -0.930008        -0.111937
 H        -0.265005         0.046436         1.369857
 H        -0.579453         0.893863        -0.171166
 H         2.260034         1.723199         0.509684
 H         2.729677         0.297239         1.602835
 H         1.855470         1.874682        -1.388491
 H         1.784997         0.384784        -2.298783
 H         5.299722        -1.685535        -1.073949
 H         4.937778        -1.287608         0.790323
 H         3.068426        -1.452684        -2.054735
