19
Iteration:  4488charge 0 multiplicity 1
 C        -0.150125         0.043999         0.068932
 C         1.383459        -0.027607        -0.108659
 C         2.495833         0.629976         0.777575
 C         3.258822         0.360223        -0.691746
 C         1.879418         0.801855        -1.357603
 O         4.711041         0.350516        -0.861527
 C         4.603286        -1.170751        -0.432667
 C         3.113645        -1.146094        -0.916468
 O         1.945818        -1.414098        -0.236778
 H        -0.503077        -0.708778        -0.651025
 H        -0.522459        -0.351319         1.001410
 H        -0.650510         1.033017        -0.080550
 H         2.549709         1.727282         0.940649
 H         2.923812         0.104532         1.622023
 H         1.587430         1.810612        -1.129814
 H         1.564574         0.580998        -2.369594
 H         5.361177        -1.859548        -0.821219
 H         4.692571        -1.348264         0.720790
 H         3.050333        -1.445567        -1.987526
