19
Iteration:  1495
 C        -0.082301        -0.038156         0.416868
 C         1.320809        -0.065388        -0.232855
 C         2.443981         0.530256         0.700363
 C         3.288243         0.445524        -0.715015
 C         1.918037         0.935170        -1.358161
 O         4.845350         0.245900        -0.633063
 C         4.632083        -1.164771        -0.465012
 C         3.071723        -1.056032        -0.955605
 O         1.749944        -1.398224        -0.525231
 H         0.006099        -0.209985         1.525683
 H        -0.593080         1.113910         0.177834
 H        -0.549960        -0.838622        -0.107189
 H         2.577382         1.601064         0.658978
 H         2.774208        -0.050773         1.566914
 H         1.713269         2.032808        -1.153309
 H         1.645548         0.675099        -2.465505
 H         5.412380        -1.615733        -1.173703
 H         4.807819        -1.514013         0.583820
 H         3.138983        -1.374186        -2.026467
