19
Iteration:  1252
 C        -0.138645         0.097687         0.143216
 C         1.415844        -0.037478        -0.148725
 C         2.528776         0.508332         0.768198
 C         3.209863         0.334866        -0.597278
 C         1.954764         0.866193        -1.287367
 O         4.752159         0.306672        -0.746713
 C         4.644539        -1.155014        -0.516135
 C         3.090179        -1.093851        -0.953388
 O         1.790297        -1.383623        -0.413318
 H        -0.262188        -0.213675         1.232710
 H        -0.592344         1.078101         0.024391
 H        -0.466706        -0.755916        -0.384840
 H         2.363379         1.503617         1.065146
 H         2.692510        -0.124807         1.623149
 H         1.689593         1.923586        -0.980246
 H         1.807311         0.366471        -2.293761
 H         5.264032        -1.595213        -1.319486
 H         5.042654        -1.527979         0.454427
 H         2.889633        -1.246164        -2.020633
