19
Iteration:  2792
 C        -0.102178         0.049086         0.386541
 C         1.324698        -0.036027        -0.219271
 C         2.545096         0.429393         0.602373
 C         3.206703         0.345442        -0.773476
 C         1.951663         0.929012        -1.461019
 O         4.702948         0.406554        -0.632332
 C         4.620890        -1.097020        -0.333719
 C         3.153869        -1.182993        -0.963709
 O         1.838321        -1.422612        -0.448798
 H        -0.104812         0.281089         1.509840
 H        -0.637753         0.872217        -0.021951
 H        -0.528243        -0.998786         0.256954
 H         2.551838         1.514340         0.875567
 H         2.577483        -0.368764         1.447403
 H         1.614274         2.010547        -1.274124
 H         1.777881         0.571377        -2.487152
 H         5.440195        -1.633422        -0.906599
 H         4.703773        -1.181592         0.735392
 H         3.106638        -1.626520        -1.951616
