19
Iteration:   541charge 0 multiplicity 1
 C         0.010163        -0.049841         0.360868
 C         1.342730         0.040044        -0.185997
 C         2.425607         0.557306         0.696006
 C         3.315620         0.386747        -0.622542
 C         1.950334         0.908890        -1.347872
 O         4.764738         0.283685        -0.759325
 C         4.490730        -1.230596        -0.434284
 C         3.094402        -1.064065        -0.973204
 O         1.818250        -1.395174        -0.490508
 H        -0.115821        -0.830160         1.121556
 H        -0.344563         0.825095         0.885891
 H        -0.677092        -0.281779        -0.595561
 H         2.368982         1.657935         0.930149
 H         2.671750         0.002003         1.648263
 H         1.804688         1.939662        -1.294946
 H         1.853231         0.639197        -2.412447
 H         5.307618        -1.724323        -1.040787
 H         4.619738        -1.341920         0.627863
 H         3.198436        -1.260117        -2.050006
