19
Iteration:  4385charge 0 multiplicity 1
 C        -0.094583        -0.035497         0.249487
 C         1.415561         0.044196        -0.151091
 C         2.580615         0.655604         0.627172
 C         3.197760         0.390279        -0.730082
 C         1.801206         0.728731        -1.469293
 O         4.733708         0.257645        -0.767360
 C         4.621367        -1.080510        -0.299669
 C         3.140751        -1.135941        -0.889361
 O         1.849713        -1.367775        -0.343674
 H        -0.697029        -0.392911        -0.646012
 H        -0.131883        -0.878397         0.967742
 H        -0.588027         0.854738         0.726844
 H         2.489527         1.769616         0.858874
 H         2.802548         0.016088         1.552880
 H         1.652274         1.854220        -1.378722
 H         1.610154         0.443485        -2.508456
 H         5.318620        -1.782341        -0.866127
 H         4.609449        -1.123783         0.796702
 H         3.220141        -1.375696        -2.030301
