19
Iteration:  1961
 C        -0.031652         0.037936         0.290712
 C         1.371026        -0.063174        -0.199419
 C         2.587945         0.627234         0.627751
 C         3.163750         0.418164        -0.661180
 C         1.944184         0.960243        -1.331926
 O         4.661944         0.304427        -0.688835
 C         4.552892        -1.240914        -0.361796
 C         3.153885        -1.137324        -0.946486
 O         1.843968        -1.468529        -0.515788
 H        -0.147479        -0.817997         1.085366
 H        -0.322441         0.878940         0.906712
 H        -0.754698        -0.154389        -0.435074
 H         2.445984         1.741907         0.804667
 H         2.837387        -0.033817         1.549969
 H         1.660343         2.027478        -1.312253
 H         1.667108         0.503044        -2.280634
 H         5.398925        -1.669470        -1.020621
 H         4.727855        -1.272726         0.724326
 H         3.057531        -1.381917        -2.022630
