19
Iteration:  1879
 C        -0.177610         0.008485         0.161433
 C         1.364111         0.021451        -0.156447
 C         2.546288         0.516238         0.820705
 C         3.252854         0.407766        -0.650247
 C         1.931630         0.862939        -1.323452
 O         4.757592         0.307614        -0.740306
 C         4.613783        -1.207314        -0.531710
 C         3.109184        -1.095878        -1.009642
 O         1.839388        -1.390675        -0.338416
 H        -0.412704        -0.160238         1.173512
 H        -0.625197         1.002343        -0.232970
 H        -0.623220        -0.812027        -0.506329
 H         2.488251         1.520441         1.184360
 H         2.913959        -0.114122         1.615300
 H         1.760187         1.951295        -1.062655
 H         1.529229         0.577389        -2.326608
 H         5.349562        -1.813705        -1.009938
 H         4.893785        -1.304701         0.540061
 H         3.064037        -1.257679        -2.098174
