19
Iteration:   539
 C        -0.015088        -0.029650         0.358575
 C         1.343978         0.034781        -0.183812
 C         2.436729         0.536399         0.685614
 C         3.317917         0.396246        -0.631538
 C         1.978963         0.881592        -1.335812
 O         4.741542         0.295305        -0.758700
 C         4.480819        -1.230280        -0.438848
 C         3.095647        -1.059850        -0.976342
 O         1.825488        -1.401849        -0.496687
 H         0.056938        -0.780174         1.129806
 H        -0.470337         0.831171         0.904451
 H        -0.666522        -0.312099        -0.499857
 H         2.383057         1.618346         0.918267
 H         2.674898         0.041140         1.661460
 H         1.923304         1.986597        -1.291587
 H         1.860137         0.593594        -2.387975
 H         5.293931        -1.705302        -0.932122
 H         4.608590        -1.349868         0.632419
 H         3.164508        -1.146977        -2.046351
