19
Iteration:   322charge 0 multiplicity 1
 C        -0.073276        -0.011364         0.179698
 C         1.402315         0.014202        -0.116514
 C         2.577706         0.502699         0.783444
 C         3.249843         0.380910        -0.695579
 C         1.939607         0.891380        -1.260388
 O         4.713408         0.334373        -0.743294
 C         4.510238        -1.206557        -0.475146
 C         3.103703        -1.091402        -0.954285
 O         1.825870        -1.374825        -0.458467
 H        -0.224120        -0.478890         1.110641
 H        -0.444027         1.064269         0.165520
 H        -0.721819        -0.505162        -0.575034
 H         2.309973         1.562357         1.082127
 H         2.782079        -0.277899         1.565271
 H         1.915756         1.982317        -1.007615
 H         1.786035         0.437084        -2.205737
 H         5.113939        -1.658287        -1.229004
 H         4.761896        -1.515076         0.574204
 H         3.141245        -1.295079        -2.045172
