19
Iteration:    66charge 0 multiplicity 1
 C        -0.052410         0.071723         0.359888
 C         1.374257        -0.035657        -0.113020
 C         2.452904         0.469847         0.724065
 C         3.257714         0.349301        -0.707110
 C         2.027756         0.924637        -1.354988
 O         4.667923         0.361210        -0.772947
 C         4.504085        -1.166406        -0.410142
 C         3.117100        -1.089045        -1.092562
 O         1.905649        -1.461652        -0.438281
 H        -0.221782         0.078497         1.432898
 H        -0.518534         0.907489        -0.105850
 H        -0.502153        -0.875372         0.035397
 H         2.412651         1.505187         1.066508
 H         2.640784        -0.207030         1.566850
 H         1.764869         1.899402        -1.066913
 H         1.827221         0.796917        -2.402325
 H         5.341790        -1.791164        -0.774078
 H         4.326939        -1.266903         0.655494
 H         3.147140        -1.309808        -2.165979
