19
Iteration:  2438
 C        -0.022018         0.149378         0.256244
 C         1.363086        -0.069527        -0.187695
 C         2.547985         0.526136         0.711860
 C         3.199825         0.309608        -0.669256
 C         1.996377         0.764667        -1.426486
 O         4.627130         0.350312        -0.775231
 C         4.591989        -1.060553        -0.316274
 C         3.131165        -1.130656        -0.906217
 O         1.809097        -1.454252        -0.474965
 H        -0.376533        -0.873452         0.651829
 H        -0.130937         0.787746         1.105511
 H        -0.827022         0.386316        -0.406044
 H         2.332884         1.647192         0.831881
 H         3.023258         0.160500         1.686805
 H         1.818854         1.853934        -1.326006
 H         1.775339         0.388150        -2.411612
 H         5.491863        -1.563858        -0.769644
 H         4.625673        -1.256631         0.783394
 H         3.152316        -1.315976        -1.953354
