19
Iteration:  4885charge 0 multiplicity 1
 C        -0.097418        -0.050680         0.326570
 C         1.334107         0.032311        -0.301986
 C         2.429442         0.644332         0.599003
 C         3.310032         0.355323        -0.785377
 C         1.943499         0.806621        -1.462807
 O         4.718975         0.283513        -0.782156
 C         4.573435        -1.096039        -0.238659
 C         3.161459        -1.154503        -0.852947
 O         1.867773        -1.361445        -0.337585
 H        -0.974149         0.115521        -0.379249
 H        -0.141093        -1.068102         0.690868
 H        -0.141283         0.573444         1.185402
 H         2.428131         1.668085         0.895740
 H         2.451089        -0.107141         1.436004
 H         1.906860         1.870908        -1.317694
 H         1.707867         0.528393        -2.475300
 H         5.287669        -1.751243        -0.680464
 H         4.720001        -1.274113         0.842743
 H         3.084629        -1.330350        -1.950491
