19
Iteration:  3267charge 0 multiplicity 1
 C        -0.086695        -0.072956         0.419020
 C         1.347344         0.018405        -0.212491
 C         2.612249         0.698061         0.545721
 C         3.230509         0.361946        -0.817271
 C         1.887876         0.753815        -1.565373
 O         4.714214         0.372977        -0.707157
 C         4.555790        -1.108194        -0.227339
 C         3.183697        -1.155070        -0.881689
 O         1.830081        -1.415675        -0.390641
 H        -0.892473         0.050897        -0.354995
 H        -0.336710        -1.060696         0.678160
 H        -0.354482         0.571062         1.331645
 H         2.453524         1.745407         0.557471
 H         2.972424         0.239289         1.495717
 H         1.497177         1.802588        -1.473385
 H         1.682934         0.217560        -2.439559
 H         5.415777        -1.737922        -0.544932
 H         4.512793        -1.158071         0.838757
 H         3.144472        -1.511147        -1.912971
