19
Iteration:   788
 C        -0.116088         0.008738         0.178779
 C         1.343383        -0.053064        -0.152481
 C         2.576972         0.528286         0.817242
 C         3.244755         0.347510        -0.604274
 C         1.996098         0.854197        -1.343558
 O         4.667451         0.292446        -0.783737
 C         4.698066        -1.099428        -0.543556
 C         3.125168        -1.094733        -0.896339
 O         1.746050        -1.379052        -0.401461
 H        -0.648959        -0.894810         0.653225
 H        -0.258731         0.953209         0.872948
 H        -0.601090         0.322604        -0.778559
 H         2.384126         1.486113         1.093587
 H         2.868172        -0.230345         1.459671
 H         1.569713         1.813137        -1.121464
 H         1.842957         0.618775        -2.455757
 H         5.462194        -1.631612        -1.071780
 H         4.896785        -1.362238         0.603111
 H         3.016948        -1.165251        -2.018176
