19
Iteration:   857charge 0 multiplicity 1
 C        -0.098945        -0.025093         0.328276
 C         1.434703         0.006102        -0.138318
 C         2.566679         0.457569         0.774983
 C         3.313766         0.467620        -0.658644
 C         1.952964         0.872269        -1.409753
 O         4.714074         0.330908        -0.754415
 C         4.539166        -1.185893        -0.368123
 C         3.132067        -1.051474        -0.961583
 O         1.713609        -1.388231        -0.559215
 H        -0.157520        -0.113366         1.393082
 H        -0.403349         1.004867         0.147825
 H        -0.647214        -0.916120        -0.296521
 H         2.422718         1.439297         1.243327
 H         2.839561        -0.478564         1.281854
 H         1.658852         1.939396        -1.122379
 H         1.764571         0.497469        -2.423014
 H         5.308096        -1.738720        -0.986844
 H         4.655845        -1.440327         0.756702
 H         3.198547        -1.340153        -2.041530
