19
Iteration:  3502
 C        -0.213120        -0.014901         0.094142
 C         1.319374         0.026090        -0.133066
 C         2.511596         0.662246         0.685903
 C         3.204244         0.355870        -0.696111
 C         1.871994         0.836598        -1.357977
 O         4.750100         0.350833        -0.811897
 C         4.697923        -1.135817        -0.517173
 C         3.170547        -1.158365        -0.870837
 O         1.920802        -1.462721        -0.163965
 H        -0.481343        -0.861304        -0.486245
 H        -0.396907        -0.372160         1.175925
 H        -0.729894         0.969129        -0.117463
 H         2.355395         1.712358         0.886322
 H         2.970879         0.122183         1.506991
 H         1.648777         1.934493        -1.225584
 H         1.657234         0.528303        -2.402455
 H         5.369016        -1.709308        -1.064961
 H         4.676179        -1.503281         0.510135
 H         3.020843        -1.465390        -1.878593
