19
Iteration:   882
 C        -0.133407         0.084473         0.300137
 C         1.381607         0.044845        -0.184597
 C         2.497025         0.366445         0.733998
 C         3.263922         0.298301        -0.642841
 C         1.980155         0.904238        -1.265343
 O         4.651274         0.314518        -0.750210
 C         4.665311        -1.061010        -0.419133
 C         3.120694        -1.132586        -1.005367
 O         1.807410        -1.405268        -0.525177
 H        -0.052660         0.093854         1.406042
 H        -0.451113         1.093427         0.068200
 H        -0.716861        -0.749864        -0.148051
 H         2.513209         1.522095         0.834000
 H         2.792877        -0.388016         1.509264
 H         1.766033         1.956518        -1.081065
 H         1.753864         0.606825        -2.328022
 H         5.441443        -1.750612        -0.895944
 H         4.689231        -1.227327         0.640858
 H         3.187626        -1.338844        -2.064241
