19
Iteration:  2434charge 0 multiplicity 1
 C        -0.040374         0.130920         0.237238
 C         1.350914        -0.071113        -0.169171
 C         2.579312         0.542019         0.688151
 C         3.215273         0.290597        -0.659863
 C         2.008145         0.801794        -1.396494
 O         4.585205         0.340055        -0.776783
 C         4.567472        -1.060934        -0.326411
 C         3.135158        -1.150881        -0.896073
 O         1.842460        -1.456158        -0.469985
 H        -0.399030        -0.838764         0.634512
 H        -0.053653         0.881298         1.062343
 H        -0.909417         0.512301        -0.435283
 H         2.272596         1.581726         0.827164
 H         2.945767         0.137433         1.667871
 H         1.795713         1.870928        -1.369380
 H         1.787791         0.293885        -2.365072
 H         5.463681        -1.593439        -0.770846
 H         4.747988        -1.153141         0.733151
 H         3.280879        -1.205958        -2.027283
