19
Iteration:  2392charge 0 multiplicity 1
 C        -0.122714        -0.040616         0.093677
 C         1.396409         0.043566        -0.182212
 C         2.527406         0.505921         0.690577
 C         3.255677         0.384923        -0.655699
 C         1.930846         0.878579        -1.297010
 O         4.770281         0.279305        -0.817336
 C         4.645472        -1.096456        -0.452125
 C         3.123154        -1.121857        -0.915442
 O         1.759062        -1.353569        -0.248021
 H        -0.549223        -0.812195         0.850306
 H        -0.411557         0.890920         0.563121
 H        -0.716518        -0.235532        -0.850332
 H         2.450390         1.566705         1.119181
 H         2.794742        -0.263781         1.507304
 H         1.697608         1.936601        -1.194579
 H         1.720108         0.502858        -2.296968
 H         5.259568        -1.915620        -1.002895
 H         4.826895        -1.220418         0.611373
 H         2.957142        -1.481281        -1.898022
