19
Iteration:  4104charge 0 multiplicity 1
 C        -0.073267        -0.017696         0.387768
 C         1.297276         0.010298        -0.184905
 C         2.499178         0.500448         0.641432
 C         3.169372         0.442272        -0.749061
 C         1.844194         0.787166        -1.517633
 O         4.811853         0.289907        -0.817441
 C         4.614526        -1.063897        -0.207911
 C         3.221490        -1.048256        -0.877658
 O         1.824724        -1.390329        -0.431221
 H        -0.781296        -0.897881         0.181130
 H        -0.140428        -0.063676         1.527778
 H        -0.665137         0.808315        -0.097283
 H         2.459443         1.576418         0.828129
 H         2.926019        -0.300302         1.292187
 H         1.583289         1.923943        -1.622379
 H         1.772285         0.288116        -2.522480
 H         5.335339        -1.773047        -0.757808
 H         4.618834        -1.280365         0.810463
 H         3.405012        -1.568618        -1.827104
