19
Iteration:  3493
 C        -0.220529        -0.025767         0.125970
 C         1.311879         0.021983        -0.102373
 C         2.534588         0.634951         0.604316
 C         3.270816         0.334442        -0.677385
 C         1.900923         0.860242        -1.356623
 O         4.713904         0.349386        -0.794611
 C         4.649597        -1.143050        -0.483992
 C         3.153106        -1.117678        -0.833077
 O         1.918103        -1.510913        -0.231644
 H        -0.707406        -0.839779        -0.385604
 H        -0.307178        -0.108716         1.220839
 H        -0.870131         0.863616        -0.191779
 H         2.430155         1.700088         0.587882
 H         2.856748         0.346893         1.620487
 H         1.756593         1.967246        -1.138155
 H         1.576838         0.598169        -2.335743
 H         5.326791        -1.597515        -1.216120
 H         5.110767        -1.206573         0.538370
 H         3.083702        -1.501866        -1.853657
