19
Iteration:  2412charge 0 multiplicity 1
 C        -0.125550         0.115303         0.182993
 C         1.328714        -0.021614        -0.146741
 C         2.475854         0.514417         0.739774
 C         3.235324         0.352234        -0.707925
 C         1.924574         0.866844        -1.362542
 O         4.725401         0.321111        -0.854127
 C         4.639232        -1.122889        -0.359963
 C         3.158071        -1.122974        -0.904541
 O         1.877465        -1.475641        -0.344378
 H        -0.594214        -0.800872         0.542176
 H        -0.437682         0.947895         0.828848
 H        -0.758365         0.274190        -0.765257
 H         2.514585         1.570445         1.011962
 H         2.843789        -0.079871         1.584784
 H         1.703493         1.880719        -1.049898
 H         1.709509         0.675838        -2.439706
 H         5.452327        -1.713133        -0.846418
 H         4.728398        -1.311176         0.698139
 H         3.130552        -1.526547        -1.940728
