19
Iteration:  3693
 C        -0.202983         0.054305         0.082205
 C         1.331965        -0.077576        -0.109220
 C         2.489408         0.554514         0.699659
 C         3.239203         0.388010        -0.707715
 C         1.859310         0.832086        -1.346033
 O         4.727665         0.271327        -0.909741
 C         4.699373        -1.102244        -0.388561
 C         3.170174        -1.071603        -0.890448
 O         1.901041        -1.425740        -0.183677
 H        -0.655257        -0.745817        -0.553659
 H        -0.433902        -0.010247         1.161900
 H        -0.347245         1.064045        -0.192700
 H         2.300041         1.634675         0.863120
 H         2.991119         0.022000         1.496740
 H         1.549014         1.765781        -0.979200
 H         1.655136         0.611771        -2.410233
 H         5.268992        -1.947189        -0.923403
 H         5.054828        -1.013195         0.601609
 H         3.092548        -1.420542        -1.902840
