19
Iteration:  2012charge 0 multiplicity 1
 C        -0.117897        -0.035289         0.260220
 C         1.328930         0.092669        -0.132167
 C         2.605575         0.533125         0.683232
 C         3.246594         0.401018        -0.668345
 C         1.898622         0.873045        -1.391665
 O         4.707813         0.238835        -0.809358
 C         4.622536        -1.155974        -0.312604
 C         3.152091        -1.095414        -0.843560
 O         1.790246        -1.386047        -0.532610
 H        -0.242077        -0.974505         0.925656
 H        -0.329301         0.693022         1.024622
 H        -0.932479         0.048562        -0.548557
 H         2.473457         1.549346         0.984980
 H         2.759261        -0.125730         1.482196
 H         1.805683         1.944949        -1.153115
 H         1.704637         0.554125        -2.512917
 H         5.407268        -1.651521        -0.940794
 H         4.889639        -1.391931         0.732758
 H         3.225577        -1.224613        -1.929432
