19
Iteration:  3613charge 0 multiplicity 1
 C        -0.012062         0.028314         0.347473
 C         1.416384        -0.096563        -0.111391
 C         2.411843         0.653709         0.569984
 C         3.259730         0.394497        -0.744121
 C         1.871998         0.802647        -1.452391
 O         4.697208         0.336308        -0.761853
 C         4.541703        -1.113683        -0.296387
 C         3.181171        -1.147149        -0.965544
 O         1.879672        -1.460686        -0.393263
 H        -0.766971        -0.369780        -0.399880
 H        -0.174391        -0.487103         1.287047
 H        -0.213381         1.136299         0.548117
 H         2.246180         1.703955         0.722393
 H         2.691857         0.328783         1.586832
 H         1.752828         1.925477        -1.342771
 H         1.648474         0.422486        -2.450132
 H         5.304915        -1.783519        -0.699407
 H         4.501241        -1.214612         0.767726
 H         3.302435        -1.513487        -1.971407
