19
Iteration:  4350charge 0 multiplicity 1
 C        -0.083698         0.006676         0.145084
 C         1.378727        -0.068951        -0.100554
 C         2.446362         0.609993         0.691034
 C         3.244297         0.318314        -0.670279
 C         2.017079         0.851169        -1.438906
 O         4.655396         0.326791        -0.901139
 C         4.608033        -1.048947        -0.449753
 C         3.133985        -1.146561        -0.838546
 O         1.847890        -1.434289        -0.196791
 H        -0.432086        -0.882766        -0.418119
 H        -0.288639        -0.204273         1.230556
 H        -0.666071         0.967749        -0.107024
 H         2.235094         1.722486         0.869548
 H         2.601587         0.084929         1.645834
 H         1.928004         1.939173        -1.115572
 H         2.012904         0.662850        -2.564720
 H         5.325781        -1.684321        -0.975441
 H         4.850254        -1.202680         0.608726
 H         3.012554        -1.521689        -1.919278
