19
Iteration:  4082
 C        -0.075400         0.046953         0.410873
 C         1.327022        -0.048219        -0.193673
 C         2.500583         0.640995         0.623425
 C         3.310292         0.350110        -0.695785
 C         1.869005         0.745851        -1.451605
 O         4.698626         0.329034        -0.767768
 C         4.634855        -1.045435        -0.264823
 C         3.174954        -1.149051        -0.912466
 O         1.811563        -1.425366        -0.524686
 H        -0.743583        -0.866173         0.193847
 H         0.049259        -0.171463         1.506238
 H        -0.672497         0.901133         0.028844
 H         2.237333         1.703060         0.725627
 H         2.852317        -0.010667         1.452612
 H         1.600309         1.866815        -1.416138
 H         1.658772         0.281321        -2.469077
 H         5.405683        -1.787399        -0.664356
 H         4.630782        -0.999700         0.782065
 H         3.492838        -1.445186        -1.916901
