19
Iteration:  4843
 C        -0.120137         0.102123         0.070247
 C         1.352598        -0.002449        -0.074298
 C         2.558369         0.576131         0.666046
 C         3.277283         0.335462        -0.672265
 C         1.982455         0.665963        -1.319796
 O         4.646343         0.399599        -0.834729
 C         4.599225        -1.108081        -0.369059
 C         3.094125        -1.114281        -0.897256
 O         1.858544        -1.436150        -0.302325
 H        -0.582080         0.034454        -0.935891
 H        -0.403166        -0.745120         0.673132
 H        -0.424145         0.981328         0.654543
 H         2.383848         1.560723         0.803348
 H         2.881253         0.007572         1.482112
 H         1.534690         1.672442        -1.238044
 H         1.781317         0.288017        -2.321943
 H         5.397569        -1.683881        -0.834824
 H         4.788113        -1.033590         0.705675
 H         3.206898        -1.530337        -1.893542
