19
Iteration:     6charge 0 multiplicity 1
 C        -0.078262        -0.038868         0.277350
 C         1.323404         0.012634        -0.181941
 C         2.529529         0.522297         0.742238
 C         3.253125         0.316479        -0.684865
 C         1.939793         0.920947        -1.314301
 O         4.705108         0.297069        -0.761161
 C         4.589647        -1.109979        -0.448875
 C         3.124076        -1.108971        -0.953282
 O         1.856548        -1.365424        -0.435192
 H        -0.195434        -0.556714         1.255532
 H        -0.511964         0.977865         0.399157
 H        -0.729122        -0.377761        -0.558922
 H         2.470564         1.613976         0.911144
 H         2.978067        -0.045660         1.579819
 H         1.751679         2.002890        -1.206656
 H         1.635987         0.419733        -2.283872
 H         5.184835        -1.798644        -1.088551
 H         4.695151        -1.358850         0.624292
 H         3.129443        -1.531437        -1.985841
