19
Iteration:  2315
 C        -0.090595         0.108622         0.339517
 C         1.369169        -0.012462        -0.109179
 C         2.547371         0.476428         0.643730
 C         3.230145         0.330856        -0.695710
 C         1.961418         0.880101        -1.397752
 O         4.672223         0.309640        -0.685439
 C         4.595862        -1.104087        -0.325104
 C         3.137437        -1.147784        -0.978275
 O         1.809140        -1.424819        -0.559816
 H        -0.190033         0.111329         1.441232
 H        -0.621572         0.941763        -0.074184
 H        -0.712433        -0.774557         0.009366
 H         2.570866         1.567469         0.981404
 H         2.830381        -0.214623         1.503044
 H         1.659765         1.898340        -1.380324
 H         1.963352         0.466721        -2.416594
 H         5.532715        -1.500039        -0.837465
 H         4.673234        -1.376124         0.738420
 H         3.149338        -1.235812        -2.029943
