19
Iteration:   963charge 0 multiplicity 1
 C        -0.133089        -0.099107         0.235143
 C         1.413879         0.008963        -0.178780
 C         2.549868         0.610152         0.683547
 C         3.246547         0.396691        -0.651706
 C         1.978601         0.982117        -1.276118
 O         4.693650         0.196013        -0.755735
 C         4.645546        -1.164722        -0.476523
 C         3.080347        -1.084037        -0.923140
 O         1.801721        -1.374264        -0.415462
 H        -0.441605        -1.118594         0.501054
 H        -0.639693         0.657934         0.870322
 H        -0.845496         0.037421        -0.650456
 H         2.450410         1.587828         1.132081
 H         2.976947        -0.027343         1.512363
 H         1.877943         2.053010        -0.790776
 H         1.918583         0.781658        -2.393959
 H         5.073950        -1.752642        -1.264952
 H         4.815036        -1.405708         0.620038
 H         3.079062        -1.338587        -2.004108
