19
Iteration:  2495charge 0 multiplicity 1
 C        -0.011610        -0.108878         0.217223
 C         1.431856         0.003129        -0.121332
 C         2.518898         0.664170         0.676490
 C         3.279511         0.333503        -0.703741
 C         1.999231         0.930447        -1.367682
 O         4.694728         0.307494        -0.769236
 C         4.507257        -1.150988        -0.355610
 C         3.065066        -1.149335        -0.951620
 O         1.797976        -1.417109        -0.392676
 H        -0.099854        -0.563512         1.197871
 H        -0.470355         0.943568         0.310284
 H        -0.524547        -0.700782        -0.494912
 H         2.263758         1.750196         0.713056
 H         2.798207         0.261780         1.657589
 H         1.785368         1.992434        -1.437141
 H         1.741169         0.341657        -2.282493
 H         5.335218        -1.601803        -0.806461
 H         4.341087        -1.267318         0.781478
 H         3.036022        -1.245362        -2.032273
