19
Iteration:  3730
 C         0.003066         0.040517         0.301045
 C         1.403501        -0.020178        -0.183649
 C         2.538782         0.599799         0.589307
 C         3.185120         0.304047        -0.708586
 C         1.962494         0.725691        -1.462252
 O         4.579049         0.344698        -0.782165
 C         4.673708        -1.052622        -0.278972
 C         3.082291        -1.165466        -0.936095
 O         1.810388        -1.374458        -0.352630
 H        -0.847074        -0.245756        -0.236510
 H        -0.086289        -0.754867         1.066530
 H        -0.558587         0.936325         0.708108
 H         2.527988         1.689266         0.727431
 H         2.796862         0.147497         1.589612
 H         1.821532         1.878229        -1.486056
 H         1.820156         0.261041        -2.444630
 H         5.436628        -1.600227        -0.816554
 H         4.882241        -1.079948         0.922567
 H         3.351702        -1.512740        -1.984878
