19
Iteration:   358charge 0 multiplicity 1
 C        -0.153972         0.093426         0.314679
 C         1.289833        -0.017221        -0.180385
 C         2.526934         0.388798         0.691476
 C         3.299523         0.292202        -0.728580
 C         2.034480         0.915505        -1.237157
 O         4.749884         0.356961        -0.855694
 C         4.615388        -1.046814        -0.286650
 C         3.140819        -1.146964        -0.984975
 O         1.734913        -1.413496        -0.520581
 H        -0.281446        -0.856737         0.912615
 H        -0.179985         0.876851         0.999534
 H        -0.939151         0.031384        -0.467124
 H         2.513851         1.351643         1.107644
 H         2.779923        -0.269828         1.463332
 H         2.005973         1.944914        -1.041444
 H         1.689665         0.876599        -2.325336
 H         5.426651        -1.688712        -0.707194
 H         4.572404        -1.141675         0.779263
 H         3.187009        -1.542372        -2.031428
