19
Iteration:  3175charge 0 multiplicity 1
 C        -0.241624         0.021089         0.103823
 C         1.291081        -0.017298        -0.131525
 C         2.529181         0.553853         0.643397
 C         3.271705         0.356375        -0.678753
 C         1.937859         0.817903        -1.418633
 O         4.667894         0.356857        -0.839060
 C         4.669390        -1.125084        -0.432383
 C         3.121586        -1.088701        -0.807091
 O         1.969801        -1.425719        -0.205108
 H        -0.620447        -1.004824         0.070371
 H        -0.661251         0.299148         1.142507
 H        -0.584003         0.678870        -0.658674
 H         2.561443         1.666117         1.070447
 H         2.818954        -0.209855         1.388843
 H         1.824547         1.848851        -1.204674
 H         1.711522         0.310179        -2.396146
 H         5.354452        -1.737394        -1.025366
 H         4.930885        -1.209893         0.657227
 H         3.083153        -1.330625        -1.937471
