19
Iteration:  2201charge 0 multiplicity 1
 C        -0.212448         0.088774         0.206824
 C         1.361162        -0.034274        -0.229366
 C         2.465457         0.486721         0.690402
 C         3.286835         0.339793        -0.653219
 C         1.983009         0.850787        -1.354155
 O         4.774535         0.330906        -0.753610
 C         4.606989        -1.117130        -0.462611
 C         3.088616        -1.094061        -0.963924
 O         1.861090        -1.408774        -0.262467
 H        -0.515020        -1.029349         0.460859
 H        -0.473193         0.766451         1.150365
 H        -0.784689         0.262339        -0.713546
 H         2.466535         1.493818         1.041870
 H         2.792612        -0.216070         1.417941
 H         1.918942         2.036647        -1.203354
 H         1.992074         0.580098        -2.416742
 H         5.320049        -1.702067        -1.042080
 H         4.807906        -1.501407         0.590629
 H         2.921617        -1.266392        -2.089943
