19
Iteration:  1106
 C        -0.170954         0.056484         0.191282
 C         1.266435         0.011410        -0.104159
 C         2.503693         0.498317         0.691889
 C         3.275671         0.365559        -0.632685
 C         1.909377         0.944134        -1.236440
 O         4.774355         0.234357        -0.737140
 C         4.653082        -1.221501        -0.530544
 C         3.160820        -1.069525        -0.977888
 O         1.868881        -1.371387        -0.418820
 H        -0.376924        -0.393086         1.167132
 H        -0.576666         1.035588        -0.051753
 H        -0.543320        -0.769843        -0.586341
 H         2.458285         1.541569         1.027594
 H         2.707774        -0.018137         1.666870
 H         1.604402         2.018125        -0.835879
 H         1.682063         0.659384        -2.309014
 H         5.406115        -1.755214        -1.148961
 H         4.626172        -1.554140         0.554886
 H         3.117620        -1.166896        -2.064087
