19
Iteration:  1417
 C        -0.139507         0.085438         0.160132
 C         1.324555         0.059946        -0.125595
 C         2.539707         0.413685         0.779444
 C         3.191163         0.340475        -0.616991
 C         1.925020         0.883586        -1.265527
 O         4.666620         0.284769        -0.892497
 C         4.658233        -1.091684        -0.454567
 C         3.151798        -1.175727        -0.907726
 O         1.873720        -1.390484        -0.406622
 H        -0.551100        -0.783952         0.775513
 H        -0.364002         1.006785         0.820427
 H        -0.522800         0.008768        -0.872191
 H         2.609229         1.385197         1.146420
 H         2.699212        -0.216824         1.625900
 H         1.745815         1.956249        -1.000110
 H         1.783280         0.630118        -2.391100
 H         5.339287        -1.730574        -1.052576
 H         5.008273        -1.096991         0.621093
 H         3.361926        -1.234400        -1.979044
