19
Iteration:  3897charge 0 multiplicity 1
 C        -0.064940        -0.075664         0.311204
 C         1.280886         0.104540        -0.290872
 C         2.518778         0.526376         0.597835
 C         3.243232         0.357259        -0.756526
 C         1.877982         0.838860        -1.471595
 O         4.742072         0.306250        -0.777298
 C         4.561302        -1.090552        -0.267354
 C         3.156316        -1.077760        -0.906326
 O         1.872649        -1.409249        -0.274226
 H        -0.591225        -0.994359        -0.066251
 H         0.095056        -0.179866         1.332800
 H        -0.700457         0.720098        -0.020120
 H         2.614242         1.538136         0.929733
 H         2.744852        -0.101476         1.391356
 H         1.755978         1.843369        -1.123996
 H         1.685383         0.556154        -2.559388
 H         5.419357        -1.685003        -0.813173
 H         4.758927        -1.081281         0.840525
 H         3.068803        -1.536962        -1.943238
