19
Iteration:  2035charge 0 multiplicity 1
 C        -0.051744         0.030389         0.157998
 C         1.376968        -0.012837        -0.070280
 C         2.515828         0.493632         0.764300
 C         3.266807         0.325053        -0.664276
 C         1.983611         0.906485        -1.287930
 O         4.670599         0.337865        -0.864241
 C         4.603555        -1.092757        -0.357593
 C         3.110936        -1.194443        -1.014816
 O         1.778911        -1.417634        -0.393339
 H        -0.486751        -0.702810         0.989642
 H        -0.261914         1.016632         0.490165
 H        -0.488015        -0.046420        -0.869585
 H         2.431786         1.563229         0.738117
 H         2.783342         0.125980         1.743515
 H         1.612123         1.901269        -0.911233
 H         1.936675         0.757435        -2.451529
 H         5.344622        -1.812022        -0.854987
 H         4.693825        -1.182245         0.742531
 H         3.138318        -1.391238        -2.083942
