19
Iteration:  4165
 C        -0.142686        -0.018064         0.081138
 C         1.301622        -0.007775        -0.149427
 C         2.451200         0.589184         0.687576
 C         3.275110         0.400193        -0.684635
 C         1.892505         0.726612        -1.385329
 O         4.747578         0.293348        -0.891790
 C         4.741084        -1.096597        -0.457824
 C         3.121045        -1.049932        -0.818821
 O         1.825959        -1.360145        -0.146511
 H        -0.507111        -0.377942        -0.864610
 H        -0.316059        -0.689305         0.889443
 H        -0.475195         0.924244         0.491896
 H         2.370705         1.619684         1.122502
 H         2.819567        -0.028727         1.507128
 H         1.531405         1.697255        -1.362682
 H         1.765874         0.292558        -2.379227
 H         5.386862        -1.599206        -1.129154
 H         5.023476        -1.351813         0.658516
 H         3.114790        -1.512623        -1.846490
