19
Iteration:   579
 C        -0.161821        -0.049078         0.222696
 C         1.338373         0.103643        -0.082375
 C         2.622893         0.540454         0.658512
 C         3.300167         0.332110        -0.687876
 C         1.921170         0.896720        -1.292809
 O         4.729381         0.365369        -0.735585
 C         4.526396        -1.167850        -0.442453
 C         3.094934        -1.131723        -0.991154
 O         1.863127        -1.441566        -0.400138
 H        -0.552782        -1.079079         0.621693
 H        -0.544800         0.860318         0.824489
 H        -0.596841         0.300240        -0.705260
 H         2.769904         1.558816         0.987249
 H         2.897193        -0.131088         1.481139
 H         1.758716         2.023582        -1.065169
 H         1.671625         0.584747        -2.311081
 H         5.203040        -1.840711        -1.045027
 H         4.718639        -1.511598         0.617491
 H         3.061882        -1.411366        -2.104747
