19
Iteration:  1447
 C        -0.076705        -0.027975         0.208563
 C         1.387194        -0.056834        -0.110186
 C         2.571057         0.493938         0.700775
 C         3.249762         0.395292        -0.671504
 C         1.991706         0.987384        -1.277852
 O         4.742131         0.325172        -0.803182
 C         4.508744        -1.129027        -0.451248
 C         3.080160        -1.144902        -1.002450
 O         1.775459        -1.434709        -0.367882
 H        -0.283154        -0.425143         1.256462
 H        -0.314496         0.968186         0.274511
 H        -0.394043        -0.654250        -0.715969
 H         2.300740         1.534458         0.966161
 H         2.920232        -0.048266         1.590602
 H         1.689569         2.002865        -0.934512
 H         1.829971         0.891055        -2.404862
 H         5.267380        -1.764915        -0.910425
 H         4.566724        -1.225792         0.651046
 H         3.161031        -1.318880        -2.048994
