19
Iteration:   192
 C        -0.103942        -0.024619         0.389056
 C         1.300833         0.034935        -0.122318
 C         2.543041         0.432270         0.628568
 C         3.256642         0.290934        -0.698872
 C         2.068431         0.923515        -1.353823
 O         4.673400         0.373141        -0.741026
 C         4.566066        -1.202599        -0.368506
 C         3.136260        -1.043617        -1.000131
 O         1.779504        -1.379678        -0.506613
 H        -0.179742        -1.045251         0.787413
 H        -0.346700         0.652407         1.343746
 H        -0.888561         0.235670        -0.442484
 H         2.641076         1.573278         0.754919
 H         3.007047         0.000053         1.589320
 H         1.764529         2.094300        -1.423556
 H         1.816806         0.549274        -2.391301
 H         5.276857        -1.818456        -0.903755
 H         4.756979        -1.280539         0.753359
 H         3.262163        -1.360677        -2.056095
