19
Iteration:  3235charge 0 multiplicity 1
 C        -0.102100         0.009510         0.284997
 C         1.376163        -0.025613        -0.243205
 C         2.495185         0.648716         0.670266
 C         3.201454         0.388849        -0.734864
 C         1.895172         0.814348        -1.498088
 O         4.697652         0.326935        -0.843509
 C         4.593643        -1.107376        -0.293502
 C         3.170315        -1.133607        -0.804104
 O         1.921957        -1.479453        -0.311791
 H        -0.796684        -0.287699        -0.578187
 H        -0.168777        -0.730390         1.033939
 H        -0.561059         0.965607         0.677955
 H         2.341927         1.691597         0.769735
 H         2.775785         0.035738         1.559679
 H         1.570552         1.889321        -1.558483
 H         1.621808         0.401699        -2.436472
 H         5.402458        -1.748838        -0.740293
 H         4.669241        -1.102319         0.769116
 H         3.247478        -1.390083        -1.849226
