19
Iteration:   714
 C        -0.048901        -0.041669         0.292530
 C         1.366370         0.044273        -0.124202
 C         2.500612         0.609768         0.753688
 C         3.302969         0.349310        -0.653093
 C         1.934616         0.870143        -1.310737
 O         4.697901         0.297459        -0.745389
 C         4.594024        -1.167291        -0.436164
 C         3.106363        -1.107541        -0.955708
 O         1.792239        -1.384987        -0.560353
 H        -0.043852        -0.577335         1.239257
 H        -0.482108         0.952242         0.463164
 H        -0.577368        -0.740281        -0.426862
 H         2.472643         1.680813         1.018006
 H         2.743453        -0.189357         1.430696
 H         1.878165         1.923340        -1.135818
 H         1.673623         0.613368        -2.394496
 H         5.187467        -1.839049        -1.018008
 H         4.686829        -1.299145         0.669086
 H         3.114929        -1.380736        -2.011508
