19
Iteration:  4187charge 0 multiplicity 1
 C        -0.200005         0.026113         0.124778
 C         1.343464         0.006780        -0.142468
 C         2.496888         0.628130         0.732727
 C         3.208253         0.350255        -0.666448
 C         1.952018         0.749327        -1.456309
 O         4.675329         0.362775        -0.894265
 C         4.728820        -1.091190        -0.461900
 C         3.135068        -1.151918        -0.773967
 O         1.893098        -1.465110        -0.220657
 H        -0.658513         0.164734        -0.812867
 H        -0.532723        -0.796469         0.698117
 H        -0.292245         0.887902         0.764651
 H         2.297460         1.705302         0.888934
 H         2.745439         0.274698         1.707864
 H         1.666281         1.749172        -1.345663
 H         1.657358         0.300192        -2.402368
 H         5.391316        -1.691679        -1.045111
 H         4.962012        -1.200122         0.655193
 H         3.265619        -1.544198        -1.803009
