19
Iteration:  4356charge 0 multiplicity 1
 C        -0.155853        -0.045639         0.173528
 C         1.384466        -0.031257        -0.140815
 C         2.475786         0.545983         0.667694
 C         3.225114         0.353427        -0.675721
 C         2.031270         0.865256        -1.461468
 O         4.701445         0.362573        -0.905616
 C         4.596739        -1.080048        -0.422047
 C         3.100608        -1.143064        -0.828979
 O         1.869092        -1.410190        -0.176930
 H        -0.615016        -0.828021        -0.428666
 H        -0.380800        -0.190574         1.227272
 H        -0.520590         0.946342         0.073788
 H         2.286221         1.566893         0.777904
 H         2.693145        -0.028687         1.564417
 H         2.053040         1.910979        -1.283542
 H         1.918163         0.579945        -2.492400
 H         5.226642        -1.836403        -0.924521
 H         4.848696        -1.139561         0.657781
 H         3.034966        -1.370332        -1.853254
