19
Iteration:   142
 C        -0.161852        -0.029752         0.176717
 C         1.321884        -0.016029        -0.174486
 C         2.561733         0.592430         0.724965
 C         3.294615         0.409215        -0.634409
 C         1.984459         0.949754        -1.301409
 O         4.715916         0.309735        -0.798779
 C         4.486294        -1.238741        -0.530452
 C         3.089916        -1.053993        -0.966435
 O         1.960694        -1.480952        -0.271795
 H        -0.463031        -0.893537         0.723377
 H        -0.319197         0.785768         0.842281
 H        -0.749955         0.259814        -0.660142
 H         2.193740         1.569571         0.966284
 H         2.885519        -0.030644         1.542212
 H         1.755567         1.938404        -1.060917
 H         1.836765         0.778357        -2.355234
 H         5.169586        -1.852870        -1.131265
 H         4.506036        -1.498681         0.517124
 H         3.011875        -1.249913        -2.044066
