19
Iteration:  4212
 C        -0.062152         0.040808         0.233462
 C         1.402358        -0.070946        -0.152586
 C         2.553370         0.600734         0.570931
 C         3.156186         0.305501        -0.724252
 C         1.940618         0.795089        -1.469162
 O         4.644443         0.389069        -0.814654
 C         4.598854        -1.017578        -0.335215
 C         3.178610        -1.196594        -0.904198
 O         1.835991        -1.461285        -0.229392
 H        -0.605057         0.241573        -0.771874
 H        -0.364428        -0.946363         0.735116
 H        -0.166908         0.820085         1.033663
 H         2.381707         1.778548         0.690554
 H         2.803011         0.238991         1.633276
 H         1.659414         1.853748        -1.216369
 H         1.678270         0.460309        -2.464041
 H         5.422539        -1.764470        -0.665055
 H         4.543583        -1.036166         0.777048
 H         3.315203        -1.554107        -1.933943
