19
Iteration:  3309
 C        -0.117232        -0.021596         0.225343
 C         1.334172        -0.033833        -0.203465
 C         2.481878         0.571157         0.640544
 C         3.291954         0.381417        -0.700332
 C         1.895114         0.720728        -1.498125
 O         4.723052         0.369473        -0.901520
 C         4.631060        -1.063915        -0.294004
 C         3.138445        -1.138778        -0.813002
 O         1.844095        -1.379617        -0.250472
 H        -0.790510         0.546272        -0.347233
 H        -0.476084        -0.930882         0.579059
 H         0.064845         0.632746         1.113630
 H         2.359265         1.594659         0.803553
 H         2.805211        -0.177429         1.357596
 H         1.532289         1.777915        -1.512255
 H         1.813983         0.392239        -2.496412
 H         5.412345        -1.754994        -0.568094
 H         4.641534        -0.911115         0.807422
 H         3.268025        -1.564052        -1.849588
