19
Iteration:  3806
 C        -0.061776        -0.037693         0.191513
 C         1.359542         0.074949        -0.152260
 C         2.550888         0.637259         0.630665
 C         3.227501         0.357130        -0.724938
 C         1.983894         0.791548        -1.384182
 O         4.639446         0.355351        -0.857298
 C         4.603142        -1.075886        -0.352697
 C         3.145646        -1.198497        -0.847461
 O         1.795369        -1.480602        -0.274963
 H        -0.681954        -0.402323        -0.587696
 H        -0.373329        -0.648449         1.068898
 H        -0.577101         0.986690         0.413157
 H         2.445669         1.742838         0.616161
 H         3.168608         0.352676         1.526953
 H         1.678126         1.850142        -1.120776
 H         1.934017         0.418378        -2.394099
 H         5.352798        -1.628016        -0.867498
 H         4.689623        -1.295479         0.781095
 H         3.266527        -1.536299        -1.905582
