19
Iteration:  4086charge 0 multiplicity 1
 C        -0.128742         0.048965         0.430226
 C         1.322230        -0.052775        -0.200711
 C         2.512752         0.625756         0.607521
 C         3.307798         0.363111        -0.719760
 C         1.871483         0.734437        -1.462881
 O         4.725943         0.320177        -0.767080
 C         4.650931        -1.065069        -0.254948
 C         3.149515        -1.121106        -0.901501
 O         1.813795        -1.418155        -0.530562
 H        -0.616088        -0.848504         0.180440
 H         0.106014        -0.118838         1.456534
 H        -0.687651         0.879417         0.068378
 H         2.236308         1.631498         0.901998
 H         2.809350        -0.016333         1.437239
 H         1.558407         1.795790        -1.399790
 H         1.666705         0.212502        -2.373757
 H         5.377740        -1.795388        -0.651629
 H         4.736631        -0.849690         0.865851
 H         3.514224        -1.298639        -1.965651
