19
Iteration:  1323charge 0 multiplicity 1
 C        -0.044796        -0.088209         0.315758
 C         1.399501         0.006744        -0.150465
 C         2.539280         0.501964         0.715363
 C         3.242649         0.390617        -0.678137
 C         1.988638         0.944960        -1.377038
 O         4.685314         0.285731        -0.773158
 C         4.534783        -1.202555        -0.324983
 C         3.090873        -1.020599        -0.916165
 O         1.753403        -1.373428        -0.547703
 H        -0.116660        -0.498112         1.329834
 H        -0.503021         1.017387         0.390274
 H        -0.531960        -0.788116        -0.509479
 H         2.414574         1.614345         1.040143
 H         3.267894         0.024640         1.440139
 H         1.739635         2.013535        -1.167782
 H         1.921853         0.649172        -2.421996
 H         5.163908        -1.800393        -1.014274
 H         4.881973        -1.311845         0.707750
 H         3.292907        -1.487263        -1.935800
