19
Iteration:  3239
 C        -0.055911        -0.019636         0.292339
 C         1.345262         0.021126        -0.248468
 C         2.484907         0.627918         0.666247
 C         3.201025         0.393227        -0.761933
 C         1.876875         0.803206        -1.505216
 O         4.728178         0.309411        -0.813478
 C         4.598844        -1.093953        -0.297484
 C         3.137997        -1.130870        -0.799330
 O         1.938507        -1.447791        -0.316127
 H        -0.851317        -0.197172        -0.509181
 H        -0.266948        -0.848216         1.053887
 H        -0.374512         0.918496         0.708668
 H         2.274339         1.734301         0.722294
 H         2.743648        -0.111835         1.422975
 H         1.568438         1.854198        -1.571440
 H         1.526604         0.267209        -2.454908
 H         5.406459        -1.790476        -0.649226
 H         4.671512        -1.049655         0.825970
 H         3.143813        -1.350421        -1.887981
