19
Iteration:  4249charge 0 multiplicity 1
 C        -0.081483        -0.073962         0.424808
 C         1.320465         0.014202        -0.191472
 C         2.535365         0.628781         0.606102
 C         3.189617         0.361441        -0.743638
 C         1.872368         0.754709        -1.538816
 O         4.768965         0.254920        -0.835023
 C         4.632314        -1.053775        -0.219700
 C         3.240703        -1.078692        -0.838783
 O         1.779686        -1.369984        -0.440237
 H        -0.826164        -0.215399        -0.371892
 H        -0.169563        -0.928009         1.130464
 H        -0.465277         0.887716         0.830523
 H         2.398140         1.678774         0.639703
 H         2.936676         0.209916         1.571732
 H         1.630961         1.828545        -1.559260
 H         1.681662         0.262338        -2.556494
 H         5.422250        -1.731611        -0.478414
 H         4.456395        -0.989010         0.844825
 H         3.216455        -1.371224        -1.893452
