19
Iteration:  4155
 C        -0.157594        -0.066424         0.123592
 C         1.386950         0.001506        -0.098390
 C         2.523483         0.629262         0.715051
 C         3.232414         0.410202        -0.712587
 C         1.959269         0.793491        -1.442908
 O         4.690933         0.305067        -0.848589
 C         4.697546        -1.098141        -0.454589
 C         3.072116        -1.132987        -0.826118
 O         1.868448        -1.395106        -0.198880
 H        -0.712801        -0.474056        -0.781191
 H        -0.457209        -0.682047         0.990389
 H        -0.539531         0.974016         0.096924
 H         2.266850         1.756461         0.908928
 H         2.827371         0.072010         1.630416
 H         1.645696         1.788072        -1.317201
 H         1.687463         0.366072        -2.408334
 H         5.387989        -1.692820        -1.055648
 H         4.914646        -1.204039         0.700568
 H         3.033119        -1.480624        -1.905862
