19
Iteration:  1527charge 0 multiplicity 1
 C        -0.049671         0.047178         0.307168
 C         1.368790         0.021162        -0.142285
 C         2.551306         0.381193         0.745043
 C         3.242525         0.332815        -0.660521
 C         2.003134         0.890868        -1.327345
 O         4.648784         0.373559        -0.767070
 C         4.503272        -1.147577        -0.409324
 C         3.110855        -1.065830        -1.030729
 O         1.846023        -1.423883        -0.460776
 H        -0.100314        -0.605470         1.182655
 H        -0.294416         1.188889         0.243014
 H        -0.620280        -0.377370        -0.502326
 H         2.586972         1.427395         1.023533
 H         2.784186        -0.280728         1.567197
 H         1.676246         1.990156        -1.253186
 H         1.774749         0.575416        -2.430265
 H         5.442327        -1.607988        -0.840594
 H         4.497835        -1.260809         0.696476
 H         3.140331        -1.338138        -2.084829
