19
Iteration:  3511charge 0 multiplicity 1
 C        -0.093532        -0.072843         0.103967
 C         1.361691         0.003575        -0.140942
 C         2.494011         0.651471         0.762192
 C         3.180752         0.399856        -0.710277
 C         1.887658         0.774915        -1.396866
 O         4.721939         0.302456        -0.818126
 C         4.673043        -1.114235        -0.497268
 C         3.134501        -1.146231        -0.964892
 O         1.906593        -1.352189        -0.102290
 H        -0.539484        -0.598877        -0.760861
 H        -0.651874        -0.440050         1.037763
 H        -0.443569         0.947439        -0.105705
 H         2.432516         1.674773         1.194074
 H         2.710458        -0.113691         1.492612
 H         1.484918         1.782722        -1.304223
 H         1.740792         0.329544        -2.438760
 H         5.321127        -1.727480        -1.072689
 H         4.753290        -1.251467         0.598700
 H         3.054112        -1.338277        -2.033441
