19
Iteration:  4785
 C        -0.068667        -0.094550         0.209898
 C         1.336924         0.119758        -0.183533
 C         2.521144         0.668280         0.699735
 C         3.251457         0.328071        -0.680742
 C         1.962303         0.800745        -1.430988
 O         4.663171         0.331690        -0.749024
 C         4.642425        -1.123202        -0.397032
 C         3.126273        -1.175039        -0.900321
 O         1.811664        -1.401324        -0.370931
 H        -0.544614        -1.056592        -0.102556
 H        -0.037200        -0.066292         1.322136
 H        -0.652310         0.718313        -0.182003
 H         2.629448         1.705992         1.078387
 H         2.636524         0.120095         1.682985
 H         1.881496         1.881316        -1.352171
 H         1.716430         0.345651        -2.405566
 H         5.373359        -1.762408        -0.943744
 H         4.679863        -1.142710         0.749026
 H         3.025375        -1.491157        -1.991389
