19
Iteration:  4818
 C        -0.143508         0.046068         0.066393
 C         1.347247        -0.068989        -0.090079
 C         2.459171         0.585279         0.752526
 C         3.235575         0.364596        -0.700209
 C         1.936908         0.875062        -1.440324
 O         4.682197         0.260175        -0.853732
 C         4.652620        -1.073801        -0.432536
 C         3.139828        -1.088065        -0.850907
 O         1.906154        -1.457886        -0.218566
 H        -0.756573        -0.405671        -0.773032
 H        -0.390960        -0.350373         1.074825
 H        -0.305246         1.095896         0.105980
 H         2.299761         1.600022         1.206913
 H         2.664012        -0.266670         1.471065
 H         1.695074         1.912662        -1.216546
 H         1.723209         0.578151        -2.480031
 H         5.466800        -1.646991        -0.891669
 H         5.007120        -1.104983         0.659930
 H         3.219421        -1.510113        -1.913995
