19
Iteration:  3225
 C        -0.148976         0.023939         0.216325
 C         1.353883        -0.068278        -0.141050
 C         2.511779         0.661177         0.620793
 C         3.238846         0.359664        -0.672153
 C         1.965323         0.792362        -1.441772
 O         4.629504         0.347933        -0.889140
 C         4.623789        -1.079773        -0.287100
 C         3.216656        -1.120773        -0.890166
 O         1.845293        -1.496762        -0.288247
 H        -0.731510        -0.555519        -0.596988
 H        -0.197686        -0.553344         1.110616
 H        -0.493920         1.077195         0.440487
 H         2.330681         1.696639         0.814885
 H         2.875792         0.345537         1.612565
 H         1.657210         1.850906        -1.181329
 H         1.985596         0.492624        -2.465056
 H         5.334649        -1.705399        -0.913555
 H         4.783359        -1.133147         0.765131
 H         3.290634        -1.533519        -1.866969
