19
Iteration:  2925charge 0 multiplicity 1
 C        -0.070119         0.069512         0.330383
 C         1.344074        -0.023208        -0.185269
 C         2.484612         0.519192         0.629579
 C         3.184639         0.382234        -0.741080
 C         1.937751         0.847725        -1.467837
 O         4.685413         0.324943        -0.778763
 C         4.599000        -1.091393        -0.291483
 C         3.189663        -1.120811        -0.863158
 O         1.883698        -1.479335        -0.425786
 H        -0.308386        -0.988884         0.624293
 H        -0.217397         0.809977         1.096964
 H        -0.789354         0.482088        -0.328927
 H         2.211111         1.536140         1.010775
 H         2.979617        -0.087959         1.397517
 H         1.553814         1.860399        -1.219334
 H         1.794831         0.667942        -2.562449
 H         5.310170        -1.770543        -0.800448
 H         4.631371        -1.277521         0.779230
 H         3.264411        -1.339337        -1.921222
