19
Iteration:  2354
 C        -0.067410        -0.063856         0.227361
 C         1.332944        -0.039022        -0.171225
 C         2.487412         0.639861         0.699015
 C         3.278224         0.370160        -0.616261
 C         2.014451         0.924599        -1.292168
 O         4.738322         0.264061        -0.747745
 C         4.560345        -1.163845        -0.461882
 C         3.077535        -1.108714        -0.995293
 O         1.815299        -1.401727        -0.376978
 H        -0.229043        -0.193472         1.265988
 H        -0.468777         0.912208        -0.203934
 H        -0.515825        -0.840679        -0.412434
 H         2.413715         1.686011         0.827090
 H         2.784550         0.173450         1.596233
 H         1.738988         2.008264        -1.239257
 H         1.873230         0.596945        -2.343089
 H         5.334461        -1.662463        -0.971059
 H         4.473605        -1.343419         0.629798
 H         3.105760        -1.423241        -2.082803
