19
Iteration:  2496
 C        -0.014768        -0.110820         0.215480
 C         1.439705        -0.002684        -0.121855
 C         2.513932         0.654684         0.685690
 C         3.281631         0.340118        -0.697118
 C         2.000187         0.930506        -1.367569
 O         4.699588         0.308844        -0.773997
 C         4.507860        -1.144694        -0.359591
 C         3.053324        -1.145871        -0.946444
 O         1.794534        -1.413502        -0.388182
 H        -0.051874        -0.543077         1.178043
 H        -0.450998         0.957211         0.259665
 H        -0.532750        -0.725075        -0.507884
 H         2.255259         1.709078         0.675939
 H         2.816417         0.287755         1.644944
 H         1.818330         1.998607        -1.452292
 H         1.725864         0.319784        -2.271559
 H         5.340622        -1.615743        -0.797444
 H         4.328486        -1.288759         0.761553
 H         3.033576        -1.257979        -2.056853
