19
Iteration:  4514
 C        -0.123987        -0.043194         0.111594
 C         1.379585        -0.013225        -0.190294
 C         2.521756         0.563143         0.722824
 C         3.270787         0.436862        -0.618323
 C         1.977909         0.916577        -1.434858
 O         4.678959         0.273628        -0.832433
 C         4.636817        -1.109573        -0.464428
 C         3.051985        -1.114857        -0.868334
 O         1.868782        -1.415505        -0.171302
 H        -0.456133        -1.034632        -0.281709
 H        -0.436162        -0.088848         1.197849
 H        -0.739510         0.802047        -0.291187
 H         2.250543         1.597677         0.979496
 H         2.902541        -0.020691         1.574753
 H         1.456536         1.945666        -1.454970
 H         2.011416         0.486481        -2.475867
 H         5.237853        -1.790035        -1.113575
 H         5.026515        -1.427896         0.486591
 H         2.976815        -1.401479        -1.909998
