19
Iteration:   260
 C        -0.115519        -0.029157         0.179624
 C         1.374561         0.060149        -0.153888
 C         2.608145         0.486532         0.820123
 C         3.228983         0.344976        -0.610299
 C         1.974456         0.905214        -1.278602
 O         4.717248         0.290076        -0.707197
 C         4.649255        -1.129685        -0.552495
 C         3.086453        -1.119302        -1.022769
 O         1.728286        -1.367233        -0.400264
 H        -0.116088        -0.135434         1.298250
 H        -0.693938         0.916400         0.018404
 H        -0.675351        -0.774946        -0.479881
 H         2.628711         1.561316         0.965803
 H         2.848991        -0.254419         1.586984
 H         1.745191         1.981308        -1.289011
 H         1.825309         0.544108        -2.367503
 H         5.415526        -1.633822        -1.207059
 H         4.783715        -1.511872         0.475148
 H         3.000628        -1.257442        -2.115053
