19
Iteration:  1452charge 0 multiplicity 1
 C        -0.037190        -0.045838         0.225098
 C         1.413624        -0.021912        -0.074439
 C         2.584238         0.521313         0.707346
 C         3.235047         0.326139        -0.653468
 C         1.977755         0.977597        -1.308399
 O         4.710490         0.313575        -0.771416
 C         4.503886        -1.116693        -0.455873
 C         3.079826        -1.100482        -1.007958
 O         1.810037        -1.423561        -0.404216
 H        -0.192113        -0.507407         1.190584
 H        -0.485866         1.057474         0.071951
 H        -0.507909        -0.648368        -0.522991
 H         2.335035         1.561873         0.897600
 H         2.791370        -0.141093         1.553066
 H         1.620323         1.975080        -1.024401
 H         1.920423         0.855988        -2.391581
 H         5.149730        -1.880843        -0.937205
 H         4.498504        -1.210053         0.638901
 H         3.028455        -1.361307        -2.110859
