19
Iteration:  2532
 C        -0.228610         0.052747         0.134290
 C         1.290517         0.087000        -0.170845
 C         2.512507         0.491666         0.682412
 C         3.276779         0.381242        -0.652600
 C         1.899870         0.920907        -1.341528
 O         4.688194         0.315671        -0.836965
 C         4.722508        -1.170859        -0.416525
 C         3.156588        -1.129319        -0.848536
 O         1.920503        -1.481145        -0.310263
 H        -0.400314         0.136405         1.244038
 H        -0.650830         0.958396        -0.278248
 H        -0.835553        -0.864151        -0.207698
 H         2.498451         1.482510         1.080509
 H         2.795709        -0.038632         1.597466
 H         1.867986         2.053849        -1.354431
 H         1.406198         0.512066        -2.260844
 H         5.495231        -1.778412        -1.010210
 H         4.928592        -1.469087         0.627233
 H         3.166592        -1.522107        -1.979765
