19
Iteration:  3483
 C        -0.149351        -0.051612         0.248319
 C         1.340635        -0.003568        -0.159521
 C         2.527830         0.651373         0.617279
 C         3.261742         0.335659        -0.709592
 C         1.977121         0.827943        -1.372530
 O         4.619689         0.338173        -0.777815
 C         4.690447        -1.091442        -0.395204
 C         3.099641        -1.152683        -0.849481
 O         1.875602        -1.471610        -0.322295
 H        -0.698431        -0.912256        -0.138885
 H        -0.517573         0.100477         1.216716
 H        -0.449027         0.882425        -0.325889
 H         2.475455         1.731292         0.643591
 H         2.690573         0.262912         1.650021
 H         1.692665         1.908215        -1.196407
 H         1.736367         0.552332        -2.352350
 H         5.088886        -1.698335        -1.264529
 H         5.367114        -1.107775         0.503177
 H         3.281171        -1.354301        -1.937168
