19
Iteration:  3909
 C        -0.075309        -0.047304         0.376181
 C         1.346664         0.003968        -0.269648
 C         2.472435         0.563703         0.566152
 C         3.239400         0.388279        -0.735922
 C         1.947980         0.854693        -1.471031
 O         4.679227         0.294259        -0.791287
 C         4.574023        -1.080234        -0.254082
 C         3.162308        -1.130751        -0.909762
 O         1.883727        -1.367421        -0.349510
 H        -0.594266        -0.922641        -0.097934
 H         0.169660        -0.372355         1.386307
 H        -0.636106         0.836661         0.548032
 H         2.372948         1.558168         0.923960
 H         2.680240        -0.174670         1.304157
 H         1.646484         1.920478        -1.561356
 H         1.788662         0.529076        -2.525990
 H         5.328762        -1.942910        -0.475830
 H         4.429627        -0.993731         0.855304
 H         3.367130        -1.466988        -1.990431
