19
Iteration:  1412charge 0 multiplicity 1
 C        -0.077593         0.086098         0.205942
 C         1.336422         0.084287        -0.114454
 C         2.489598         0.402229         0.806605
 C         3.216315         0.353511        -0.599497
 C         1.948602         0.827771        -1.282357
 O         4.643002         0.308859        -0.884530
 C         4.641566        -1.092384        -0.452770
 C         3.161745        -1.199955        -0.924624
 O         1.857322        -1.381447        -0.425802
 H        -0.561064        -0.865509         0.551150
 H        -0.458583         1.003011         0.583802
 H        -0.630164         0.201033        -0.863844
 H         2.645875         1.525349         1.088890
 H         2.840461        -0.236401         1.668080
 H         1.886358         1.922410        -1.156856
 H         1.712537         0.465812        -2.269917
 H         5.426621        -1.519550        -1.102195
 H         4.951396        -1.172468         0.582057
 H         3.148149        -1.279762        -2.039089
