19
Iteration:  3432
 C        -0.095999         0.046797         0.350456
 C         1.370287        -0.104337        -0.117080
 C         2.542404         0.565453         0.584923
 C         3.180905         0.391610        -0.798731
 C         1.883797         0.854056        -1.493800
 O         4.642697         0.297490        -0.788406
 C         4.550038        -1.049505        -0.217041
 C         3.239245        -1.162748        -0.875299
 O         1.890428        -1.444849        -0.476135
 H        -0.698404        -0.910570         0.206905
 H        -0.106723         0.107178         1.456140
 H        -0.516658         0.989113         0.071430
 H         2.356896         1.648163         0.847407
 H         3.016652         0.085906         1.468259
 H         1.700108         1.888934        -1.208455
 H         1.587268         0.668895        -2.545056
 H         5.500840        -1.615530        -0.471394
 H         4.710324        -1.019769         0.851192
 H         3.438497        -1.562068        -1.913428
