19
Iteration:   576charge 0 multiplicity 1
 C        -0.159898        -0.049268         0.241555
 C         1.309493         0.106504        -0.092126
 C         2.620833         0.545899         0.641709
 C         3.298370         0.339376        -0.691897
 C         1.907824         0.895842        -1.286377
 O         4.735769         0.334331        -0.727349
 C         4.536446        -1.185998        -0.437901
 C         3.104958        -1.087896        -0.981286
 O         1.857993        -1.439645        -0.401209
 H        -0.548856        -1.053726         0.594834
 H        -0.508040         0.778813         0.846541
 H        -0.685279         0.240086        -0.794366
 H         2.718929         1.613667         0.964185
 H         3.050689        -0.135672         1.412105
 H         1.787626         1.944826        -1.060580
 H         1.671836         0.653360        -2.324588
 H         5.295148        -1.796329        -1.101037
 H         4.733308        -1.493354         0.602812
 H         3.138348        -1.414444        -2.061730
