19
Iteration:  1532
 C        -0.042480         0.032689         0.237860
 C         1.363146         0.049957        -0.100974
 C         2.565959         0.362999         0.755629
 C         3.234453         0.330742        -0.687563
 C         2.009728         0.872567        -1.326206
 O         4.687202         0.362416        -0.789934
 C         4.506941        -1.095920        -0.388252
 C         3.115234        -1.048710        -1.055122
 O         1.812014        -1.434097        -0.436571
 H        -0.142417        -0.571656         1.161957
 H        -0.277167         1.155902         0.398573
 H        -0.797874        -0.318703        -0.519095
 H         2.540134         1.395366         1.239472
 H         2.811057        -0.284095         1.631895
 H         1.650697         1.857923        -1.190725
 H         1.791124         0.497971        -2.270293
 H         5.314391        -1.617186        -0.870880
 H         4.521959        -1.254531         0.688221
 H         3.134421        -1.341073        -2.133054
