19
Iteration:   287
 C        -0.141598        -0.069158         0.183192
 C         1.390789        -0.009579        -0.167440
 C         2.438416         0.569945         0.755574
 C         3.188788         0.409019        -0.646180
 C         2.045044         1.032717        -1.309096
 O         4.739661         0.238907        -0.685845
 C         4.568350        -1.249507        -0.635948
 C         3.105052        -1.079389        -0.951890
 O         1.900566        -1.417252        -0.329219
 H        -0.339212        -0.053391         1.264047
 H        -0.525293         0.970790         0.023324
 H        -0.726047        -0.878255        -0.253829
 H         2.240020         1.582959         1.223025
 H         2.762422         0.001148         1.710204
 H         1.841457         2.137669        -1.219922
 H         1.857249         0.960387        -2.337643
 H         5.129812        -1.714693        -1.466151
 H         4.931656        -1.685411         0.325613
 H         3.020344        -1.296486        -2.020328
