19
Iteration:  4033
 C        -0.188362        -0.057940         0.144213
 C         1.299279        -0.021370        -0.168252
 C         2.553789         0.616457         0.718555
 C         3.207644         0.365606        -0.725143
 C         1.902401         0.803333        -1.402224
 O         4.782096         0.321324        -0.855974
 C         4.650805        -1.108453        -0.426748
 C         3.125952        -1.085569        -0.854358
 O         1.884178        -1.383330        -0.186929
 H        -0.772548        -0.314794        -0.743323
 H        -0.379572        -0.917335         0.866213
 H        -0.509179         0.983770         0.494434
 H         2.502818         1.699151         0.945077
 H         2.775669        -0.105636         1.521866
 H         1.477909         1.801192        -1.525643
 H         1.763387         0.352015        -2.360654
 H         5.269116        -1.830738        -0.953948
 H         4.919226        -1.140645         0.699540
 H         3.248470        -1.252883        -1.942456
