19
Iteration:  2015charge 0 multiplicity 1
 C        -0.112122        -0.012351         0.228113
 C         1.351257         0.067080        -0.138052
 C         2.600106         0.566413         0.693374
 C         3.228051         0.374695        -0.672415
 C         1.909654         0.878340        -1.355920
 O         4.687283         0.238491        -0.816134
 C         4.609776        -1.147817        -0.331894
 C         3.160704        -1.103048        -0.841512
 O         1.799625        -1.390537        -0.541352
 H        -0.264473        -0.947851         0.934559
 H        -0.374084         0.691891         0.997754
 H        -0.890563        -0.002518        -0.489207
 H         2.428110         1.611968         1.035621
 H         2.794330        -0.155178         1.556909
 H         1.915961         1.976980        -1.107684
 H         1.638580         0.503379        -2.392840
 H         5.510473        -1.624750        -0.915738
 H         4.889604        -1.360310         0.730595
 H         3.159922        -1.315894        -1.878363
