19
Iteration:  1118
 C        -0.169497         0.067637         0.222279
 C         1.408331         0.030291        -0.135986
 C         2.515390         0.447368         0.786921
 C         3.238704         0.357215        -0.649994
 C         1.996676         0.886318        -1.304773
 O         4.672643         0.300125        -0.717408
 C         4.572598        -1.183972        -0.482012
 C         3.154451        -1.065800        -1.004814
 O         1.868826        -1.411195        -0.439167
 H        -0.436238        -0.342746         1.219187
 H        -0.568717         1.067939         0.206170
 H        -0.829822        -0.484582        -0.620714
 H         2.428295         1.491062         1.045166
 H         2.847410        -0.253807         1.525986
 H         1.923362         2.065848        -1.210544
 H         1.670693         0.666261        -2.366536
 H         5.189772        -1.753021        -1.219821
 H         4.888379        -1.400082         0.566951
 H         3.195383        -1.325614        -2.075091
