19
Iteration:   651
 C        -0.060596         0.041576         0.273554
 C         1.355001        -0.008610        -0.079908
 C         2.576724         0.499526         0.674170
 C         3.248718         0.270795        -0.639588
 C         1.925660         0.902367        -1.314392
 O         4.672282         0.299312        -0.712232
 C         4.611181        -1.124851        -0.473334
 C         3.111682        -1.106192        -1.029049
 O         1.813946        -1.360670        -0.453990
 H        -0.232106        -0.225199         1.275151
 H        -0.523242         0.902926        -0.032881
 H        -0.557243        -0.653089        -0.483520
 H         2.512810         1.543457         1.084894
 H         2.624980        -0.246563         1.523683
 H         1.698806         1.933372        -1.138041
 H         1.677722         0.565971        -2.318738
 H         5.515039        -1.646628        -0.899135
 H         4.739676        -1.232604         0.552695
 H         3.112640        -1.231523        -2.099906
