19
Iteration:  4852
 C        -0.143935         0.064833         0.122259
 C         1.404560        -0.079870        -0.079785
 C         2.590840         0.653293         0.654171
 C         3.242223         0.338832        -0.721663
 C         1.964981         0.751166        -1.394707
 O         4.670126         0.352735        -0.792661
 C         4.615963        -1.064568        -0.347793
 C         3.130275        -1.172503        -0.848826
 O         1.796066        -1.457167        -0.328045
 H        -0.765519         0.137724        -0.836234
 H        -0.577821        -0.825509         0.600770
 H        -0.396162         0.857505         0.756171
 H         2.497945         1.690900         0.903439
 H         2.914867         0.071620         1.549232
 H         1.813775         1.815262        -1.328464
 H         1.735699         0.394597        -2.397694
 H         5.343037        -1.515448        -0.969663
 H         4.740825        -1.006575         0.768034
 H         3.145127        -1.423706        -1.972642
