19
Iteration:   339charge 0 multiplicity 1
 C        -0.043948         0.039829         0.244132
 C         1.421078         0.027439        -0.140015
 C         2.587695         0.400499         0.736275
 C         3.201144         0.324331        -0.659025
 C         1.921835         1.010054        -1.341936
 O         4.627587         0.274313        -0.763414
 C         4.679180        -1.102721        -0.361115
 C         3.104056        -1.140944        -0.955040
 O         1.747049        -1.379529        -0.511424
 H        -0.391773        -0.801888         0.980910
 H        -0.339586         1.042073         0.546490
 H        -0.598497        -0.317261        -0.619550
 H         2.693617         1.428373         1.056377
 H         3.003746        -0.313904         1.452374
 H         1.619191         2.006775        -0.966871
 H         1.642297         0.679306        -2.421516
 H         5.456320        -1.728883        -0.903036
 H         4.837852        -1.103508         0.724714
 H         3.193851        -1.484270        -1.994061
