19
Iteration:   690
 C        -0.116596        -0.123696         0.401973
 C         1.329215        -0.015538        -0.162264
 C         2.472032         0.532382         0.636386
 C         3.311302         0.414305        -0.643031
 C         1.942397         1.019509        -1.405900
 O         4.766155         0.208874        -0.687694
 C         4.587124        -1.211937        -0.484676
 C         3.123800        -1.023344        -0.993988
 O         1.845711        -1.356184        -0.450815
 H        -0.258126        -0.328297         1.533269
 H        -0.672563         0.877864         0.184242
 H        -0.601875        -0.952719        -0.125395
 H         2.381012         1.607012         0.708099
 H         2.751714         0.020863         1.528702
 H         1.711603         2.060865        -1.174699
 H         1.930532         0.846857        -2.532592
 H         5.270706        -1.922847        -0.899262
 H         4.407767        -1.346730         0.660601
 H         3.073203        -1.183399        -2.108520
