19
Iteration:  1696charge 0 multiplicity 1
 C        -0.108102         0.019705         0.255211
 C         1.368022        -0.025530        -0.140661
 C         2.483744         0.515463         0.752874
 C         3.236949         0.329243        -0.692641
 C         1.970701         0.905159        -1.230704
 O         4.724699         0.329857        -0.764258
 C         4.626773        -1.136129        -0.452097
 C         3.130470        -1.125704        -1.028267
 O         1.804103        -1.381941        -0.477147
 H        -0.227150        -0.191831         1.277170
 H        -0.649974         0.867113        -0.109556
 H        -0.592716        -0.890378        -0.247222
 H         2.710317         1.583609         0.885498
 H         2.690843         0.008903         1.722263
 H         1.853775         1.865390        -0.838002
 H         1.720086         0.859512        -2.248684
 H         5.189661        -1.868943        -0.950839
 H         4.588456        -1.344044         0.618518
 H         3.322773        -1.416937        -2.074281
