19
Iteration:  4268charge 0 multiplicity 1
 C        -0.004158        -0.067409         0.336456
 C         1.338833        -0.019133        -0.158720
 C         2.501140         0.770853         0.569535
 C         3.280047         0.336285        -0.736590
 C         2.006896         0.806248        -1.413093
 O         4.667340         0.324279        -0.822501
 C         4.582021        -1.062794        -0.222507
 C         3.091802        -1.187156        -0.931943
 O         1.817190        -1.441227        -0.421165
 H        -0.766426        -0.714460        -0.222126
 H         0.063286        -0.613795         1.340709
 H        -0.387726         0.964279         0.605349
 H         2.085629         1.805434         0.596017
 H         2.671993         0.200042         1.527770
 H         1.604212         1.848653        -1.369523
 H         1.737987         0.421177        -2.395135
 H         5.245748        -1.835494        -0.757691
 H         4.761394        -0.994158         0.844102
 H         3.243816        -1.707959        -1.853526
