19
Iteration:   490charge 0 multiplicity 1
 C        -0.086693         0.067627         0.237719
 C         1.345788         0.016088        -0.234647
 C         2.601359         0.414624         0.700897
 C         3.235056         0.313346        -0.678693
 C         1.923212         0.941099        -1.193405
 O         4.726731         0.335707        -0.764876
 C         4.595441        -1.121770        -0.404320
 C         3.145901        -1.136823        -0.996526
 O         1.772025        -1.416928        -0.456532
 H        -0.142375         0.141835         1.358276
 H        -0.594115         0.983299        -0.044156
 H        -0.660339        -0.497825        -0.449463
 H         2.461794         1.363422         1.192149
 H         2.961480        -0.225375         1.485070
 H         1.552962         1.900450        -0.821016
 H         1.470948         0.770617        -2.214088
 H         5.230698        -1.899421        -0.957475
 H         4.878572        -1.296655         0.639205
 H         3.309617        -1.448251        -2.081538
