19
Iteration:   500charge 0 multiplicity 1
 C        -0.041024         0.093210         0.246824
 C         1.387222        -0.020297        -0.100432
 C         2.551672         0.366498         0.640264
 C         3.236320         0.360059        -0.770581
 C         1.914598         0.979503        -1.280022
 O         4.739094         0.344011        -0.725166
 C         4.622898        -1.147627        -0.383271
 C         3.114145        -1.087015        -0.919509
 O         1.742093        -1.427988        -0.488838
 H        -0.195457        -0.271488         1.297236
 H        -0.431666         1.056030         0.091341
 H        -0.545532        -0.782486        -0.172006
 H         2.343917         1.381352         0.969528
 H         2.857935        -0.360429         1.378413
 H         1.840656         1.976731        -0.927162
 H         1.525489         0.857144        -2.319130
 H         5.228790        -1.817607        -1.075084
 H         4.689417        -1.309728         0.687353
 H         3.127514        -1.491154        -1.967813
