19
Iteration:   367
 C        -0.142154         0.097676         0.340178
 C         1.364020        -0.011683        -0.197099
 C         2.442130         0.379931         0.796403
 C         3.263226         0.317249        -0.716712
 C         2.022413         0.956473        -1.330370
 O         4.737325         0.345183        -0.856856
 C         4.562076        -1.095127        -0.296411
 C         3.184482        -1.138607        -0.995361
 O         1.791341        -1.424096        -0.538106
 H        -0.281247        -0.824886         0.782096
 H        -0.165672         0.877303         1.074251
 H        -1.065992         0.203141        -0.311766
 H         2.619782         1.434604         0.923828
 H         2.863312        -0.253962         1.535161
 H         1.825630         1.872087        -0.883780
 H         1.752853         0.661333        -2.299492
 H         5.225258        -1.810927        -0.747958
 H         4.661839        -0.930309         0.763359
 H         3.319773        -1.612599        -1.994849
