19
Iteration:  2554
 C        -0.129919         0.165602         0.147043
 C         1.380021        -0.027247        -0.112020
 C         2.499415         0.560765         0.695411
 C         3.203032         0.255856        -0.717661
 C         1.978009         0.792815        -1.307095
 O         4.660010         0.384603        -0.764216
 C         4.684639        -1.006975        -0.459962
 C         3.145010        -1.257410        -0.902930
 O         1.822001        -1.466220        -0.327495
 H        -0.477415         0.208210         1.237659
 H        -0.515040         0.973591        -0.429666
 H        -0.553417        -0.832427        -0.270492
 H         2.643372         1.537589         1.056196
 H         2.619997        -0.035669         1.612017
 H         1.665237         1.865978        -1.065507
 H         1.833519         0.641388        -2.415215
 H         5.497452        -1.542132        -1.086312
 H         4.873666        -1.440177         0.542633
 H         3.145941        -1.449454        -2.081631
