19
Iteration:   108
 C        -0.080658         0.039384         0.175612
 C         1.404767         0.052846        -0.068624
 C         2.525551         0.378589         0.772314
 C         3.248583         0.310267        -0.688949
 C         1.942615         0.888109        -1.261784
 O         4.646731         0.374034        -0.875901
 C         4.718621        -1.137770        -0.489459
 C         3.139280        -1.144915        -0.847791
 O         1.710820        -1.352469        -0.406075
 H        -0.606610        -0.514034         0.870316
 H        -0.223787         1.172313         0.167869
 H        -0.463522        -0.493229        -0.748528
 H         2.277123         1.377183         1.218200
 H         2.975341        -0.208539         1.582999
 H         1.832859         1.965445        -1.197470
 H         1.597286         0.589788        -2.234738
 H         5.331371        -1.642672        -1.219044
 H         5.162129        -1.174364         0.551281
 H         3.175742        -1.628219        -1.832552
