19
Iteration:   540
 C        -0.001914        -0.039287         0.360442
 C         1.342895         0.037308        -0.184826
 C         2.430351         0.546164         0.689983
 C         3.317747         0.391927        -0.627103
 C         1.964799         0.894666        -1.341267
 O         4.752997         0.289909        -0.759171
 C         4.484705        -1.230886        -0.436621
 C         3.094790        -1.061890        -0.974765
 O         1.822143        -1.398849        -0.493861
 H        -0.025757        -0.799942         1.125346
 H        -0.411456         0.826042         0.898054
 H        -0.673490        -0.298365        -0.554222
 H         2.377753         1.640133         0.924868
 H         2.674090         0.022075         1.659112
 H         1.869371         1.959571        -1.295641
 H         1.857659         0.617163        -2.400216
 H         5.301896        -1.711149        -0.983697
 H         4.614400        -1.345007         0.626691
 H         3.181924        -1.200483        -2.044542
