19
Iteration:  1719
 C        -0.130122         0.005516         0.157460
 C         1.386716         0.003306        -0.057623
 C         2.575793         0.577410         0.732067
 C         3.263896         0.423423        -0.558422
 C         1.914938         0.921857        -1.321147
 O         4.689623         0.281053        -0.712384
 C         4.624155        -1.199529        -0.578992
 C         3.088814        -1.110459        -0.960324
 O         1.831069        -1.417397        -0.424806
 H        -0.363704        -0.384056         1.193428
 H        -0.614185         0.856514        -0.129252
 H        -0.637237        -0.849444        -0.439339
 H         2.426120         1.589087         1.222604
 H         2.820274        -0.149598         1.545601
 H         1.666149         1.918826        -1.312670
 H         1.783077         0.483767        -2.247441
 H         5.269939        -1.724737        -1.264004
 H         4.808181        -1.539972         0.437864
 H         3.389885        -1.050629        -2.022070
