19
Iteration:  2794
 C        -0.089299         0.040200         0.381553
 C         1.329531        -0.035333        -0.201957
 C         2.531847         0.439055         0.583036
 C         3.218156         0.353131        -0.757937
 C         1.948478         0.924836        -1.456859
 O         4.703265         0.409319        -0.638647
 C         4.632244        -1.092257        -0.327805
 C         3.134272        -1.194352        -0.965077
 O         1.824986        -1.439532        -0.458009
 H        -0.129193         0.306653         1.500172
 H        -0.562942         0.909833        -0.054409
 H        -0.520561        -0.954044         0.243539
 H         2.549715         1.487231         0.923056
 H         2.602460        -0.292981         1.437289
 H         1.660523         2.022788        -1.204035
 H         1.787245         0.586246        -2.512552
 H         5.487268        -1.588907        -0.931113
 H         4.714405        -1.167724         0.758965
 H         3.065542        -1.624681        -1.936091
