19
Iteration:  4897charge 0 multiplicity 1
 C        -0.052968        -0.103883         0.351698
 C         1.314867         0.036349        -0.251394
 C         2.500410         0.661537         0.666394
 C         3.211091         0.338597        -0.700474
 C         2.013707         0.776903        -1.542602
 O         4.748909         0.292933        -0.768341
 C         4.504503        -1.097273        -0.256293
 C         3.152277        -1.102879        -0.934476
 O         1.840122        -1.368918        -0.384879
 H        -0.873804         0.159347        -0.355791
 H        -0.253807        -1.068789         0.770845
 H        -0.160235         0.720860         1.096386
 H         2.327539         1.696195         0.864744
 H         2.809142         0.160773         1.607872
 H         1.793562         1.858197        -1.541125
 H         1.830607         0.314042        -2.509537
 H         5.282797        -1.748664        -0.621373
 H         4.289058        -1.015120         0.818898
 H         3.375781        -1.548510        -1.936489
