19
Iteration:  2636charge 0 multiplicity 1
 C        -0.028857        -0.127938         0.237467
 C         1.368738         0.037302        -0.201466
 C         2.629610         0.587003         0.649789
 C         3.248189         0.414315        -0.801024
 C         1.952380         0.869699        -1.473066
 O         4.651113         0.306403        -0.728841
 C         4.559463        -1.104793        -0.262754
 C         3.064195        -1.162666        -0.886732
 O         1.807244        -1.367455        -0.359476
 H        -0.113276        -1.056617         0.745798
 H        -0.200051         0.623247         1.091201
 H        -0.879756         0.000331        -0.402446
 H         2.307627         1.626015         1.007615
 H         3.189353        -0.031914         1.370137
 H         1.825358         1.895927        -1.561721
 H         1.706658         0.319948        -2.381957
 H         5.096529        -1.827868        -0.745569
 H         4.670694        -1.003742         0.824453
 H         3.106335        -1.296595        -1.941569
