19
Iteration:  1509charge 0 multiplicity 1
 C        -0.040382        -0.011585         0.350139
 C         1.353110        -0.023423        -0.186422
 C         2.505713         0.556136         0.638789
 C         3.206750         0.340187        -0.678399
 C         1.955930         0.978185        -1.340263
 O         4.688985         0.287175        -0.666328
 C         4.615273        -1.171232        -0.422746
 C         3.176499        -1.112371        -1.010051
 O         1.800969        -1.431382        -0.518009
 H         0.012281        -0.188243         1.437105
 H        -0.452560         1.114644         0.303293
 H        -0.868155        -0.632210        -0.002834
 H         2.179783         1.529147         1.119550
 H         2.850065         0.002953         1.547488
 H         1.711822         1.959557        -0.963054
 H         1.781040         0.832814        -2.372107
 H         5.235356        -1.791244        -1.092759
 H         4.799493        -1.434452         0.622784
 H         3.206938        -1.336357        -2.127908
