19
Iteration:  4884
 C        -0.097488        -0.041694         0.321221
 C         1.344067         0.031838        -0.294020
 C         2.421333         0.634805         0.576724
 C         3.308483         0.361550        -0.785324
 C         1.935260         0.817907        -1.459126
 O         4.716227         0.283310        -0.781958
 C         4.588085        -1.106467        -0.236469
 C         3.153556        -1.157949        -0.850216
 O         1.870143        -1.363115        -0.334549
 H        -1.000355         0.117680        -0.355400
 H        -0.126216        -1.080958         0.663694
 H        -0.180507         0.565762         1.158186
 H         2.446564         1.667362         0.929924
 H         2.450580        -0.097212         1.471557
 H         1.876875         1.859403        -1.284698
 H         1.733595         0.526742        -2.480455
 H         5.306927        -1.747761        -0.696591
 H         4.769663        -1.241450         0.857920
 H         3.073637        -1.345704        -1.936758
