19
Iteration:  4579
 C        -0.029067         0.048956         0.375729
 C         1.325906        -0.110437        -0.210978
 C         2.551390         0.466798         0.541399
 C         3.244824         0.416871        -0.753835
 C         1.931521         0.825065        -1.443092
 O         4.710622         0.337940        -0.781508
 C         4.455571        -1.066624        -0.197147
 C         3.098841        -1.058618        -0.949887
 O         1.904157        -1.441533        -0.400369
 H        -0.823157        -0.442798        -0.265250
 H        -0.094700        -0.369927         1.441685
 H        -0.293124         1.159519         0.301253
 H         2.381760         1.461842         0.959815
 H         2.899217        -0.125435         1.401778
 H         1.691979         1.946341        -1.436853
 H         1.721770         0.293557        -2.419505
 H         5.329061        -1.690003        -0.680957
 H         4.674569        -1.000205         0.957755
 H         3.297915        -1.417187        -1.959998
