19
Iteration:   351charge 0 multiplicity 1
 C        -0.115744         0.038956         0.292974
 C         1.304614         0.005550        -0.168309
 C         2.603843         0.395308         0.640284
 C         3.267784         0.303548        -0.723671
 C         1.990376         0.930317        -1.232958
 O         4.714977         0.329436        -0.822530
 C         4.666061        -1.055766        -0.319043
 C         3.104619        -1.172293        -0.951924
 O         1.720549        -1.396111        -0.513637
 H        -0.316263        -0.772025         1.087825
 H        -0.379542         0.991918         0.862277
 H        -0.732741         0.131242        -0.586543
 H         2.382814         1.363233         1.158851
 H         2.679733        -0.393636         1.452828
 H         1.939226         2.070225        -1.050786
 H         1.815396         0.863913        -2.362390
 H         5.590141        -1.581430        -0.665337
 H         4.568129        -1.166965         0.783067
 H         3.193291        -1.366494        -2.018219
