19
Iteration:  1012charge 0 multiplicity 1
 C        -0.107358         0.141158         0.309957
 C         1.380507        -0.060979        -0.180544
 C         2.611829         0.439854         0.766650
 C         3.208722         0.316315        -0.645093
 C         1.906287         0.873777        -1.343924
 O         4.664618         0.331660        -0.756735
 C         4.613629        -1.128259        -0.351652
 C         3.158960        -1.101636        -0.983619
 O         1.799013        -1.422234        -0.594106
 H        -0.391391        -0.747029         0.903414
 H        -0.098023         1.011508         0.942889
 H        -0.900073         0.270407        -0.391726
 H         2.612961         1.473974         1.145906
 H         2.991243        -0.139202         1.566948
 H         1.670770         1.840165        -1.122686
 H         1.806826         0.479604        -2.311207
 H         5.463316        -1.593595        -0.847834
 H         4.464691        -1.308625         0.688980
 H         3.257366        -1.180295        -2.090358
