19
Iteration:   488charge 0 multiplicity 1
 C        -0.101339         0.076079         0.238322
 C         1.335097         0.008272        -0.240752
 C         2.605138         0.428775         0.728718
 C         3.244431         0.326416        -0.652419
 C         1.911890         0.944571        -1.194892
 O         4.717006         0.323166        -0.776207
 C         4.590213        -1.123037        -0.406505
 C         3.149080        -1.161834        -1.012409
 O         1.787236        -1.410687        -0.457302
 H        -0.170082         0.108390         1.299267
 H        -0.536898         0.979740        -0.088449
 H        -0.735533        -0.541148        -0.442084
 H         2.562645         1.426779         1.196642
 H         2.969281        -0.252169         1.506499
 H         1.595106         1.841594        -0.839837
 H         1.556037         0.757365        -2.234394
 H         5.297098        -1.824918        -0.974678
 H         4.871208        -1.253145         0.627671
 H         3.277773        -1.410573        -2.097616
