19
Iteration:   910charge 0 multiplicity 1
 C        -0.120093         0.050168         0.199335
 C         1.417860        -0.086880        -0.125462
 C         2.527445         0.415737         0.710908
 C         3.183342         0.399488        -0.657205
 C         1.978682         1.043585        -1.290433
 O         4.714842         0.323616        -0.752250
 C         4.600083        -1.157416        -0.491490
 C         3.116547        -1.076499        -0.925253
 O         1.812201        -1.497955        -0.405960
 H        -0.272548        -0.172523         1.236246
 H        -0.349112         1.105938         0.026193
 H        -0.825105        -0.465910        -0.577279
 H         2.415277         1.424464         0.992679
 H         3.082006        -0.124384         1.486034
 H         1.651842         2.104947        -1.082021
 H         1.806394         0.991408        -2.371295
 H         5.171229        -1.911354        -1.046299
 H         4.883912        -1.419477         0.580847
 H         3.125955        -1.382957        -2.014683
