19
Iteration:  2694charge 0 multiplicity 1
 C        -0.104363         0.087934         0.123146
 C         1.390389        -0.061049        -0.144956
 C         2.532311         0.546208         0.718892
 C         3.263501         0.332964        -0.680089
 C         1.946466         0.754338        -1.357165
 O         4.609622         0.377739        -0.794831
 C         4.692118        -1.023640        -0.447899
 C         3.148560        -1.165575        -0.844156
 O         1.795935        -1.454267        -0.310133
 H        -0.612828        -0.690341         0.740399
 H        -0.162486         1.065268         0.536061
 H        -0.531582         0.101099        -0.940756
 H         2.443260         1.563118         1.101713
 H         2.854868        -0.202833         1.484477
 H         1.538148         1.822808        -1.245029
 H         1.799461         0.489876        -2.437206
 H         5.379603        -1.751705        -0.967494
 H         4.911395        -1.102547         0.633188
 H         3.030879        -1.302936        -1.893026
