19
Iteration:  4490
 C        -0.138365         0.036697         0.056371
 C         1.382168        -0.032818        -0.120190
 C         2.478734         0.623556         0.778614
 C         3.251490         0.363941        -0.694883
 C         1.884610         0.783361        -1.354146
 O         4.724143         0.352482        -0.862007
 C         4.583381        -1.172186        -0.446154
 C         3.121214        -1.131031        -0.903178
 O         1.948741        -1.399140        -0.226392
 H        -0.471030        -0.772767        -0.607134
 H        -0.513571        -0.319186         1.044527
 H        -0.633864         1.074214        -0.072888
 H         2.600307         1.720874         0.952859
 H         2.886318         0.022067         1.563226
 H         1.626922         1.857587        -1.085623
 H         1.518160         0.586486        -2.387228
 H         5.360705        -1.872037        -0.779473
 H         4.698192        -1.372107         0.668088
 H         2.978542        -1.411502        -1.935208
