19
Iteration:  4266charge 0 multiplicity 1
 C        -0.021983        -0.070512         0.342402
 C         1.336680        -0.028079        -0.157246
 C         2.503484         0.776848         0.585758
 C         3.295017         0.339304        -0.738604
 C         1.992100         0.806372        -1.422745
 O         4.684132         0.323549        -0.826947
 C         4.586249        -1.060029        -0.218753
 C         3.080917        -1.192101        -0.931058
 O         1.806569        -1.437693        -0.430890
 H        -0.758590        -0.711421        -0.207642
 H         0.035336        -0.618058         1.310657
 H        -0.314097         0.934073         0.678930
 H         2.077337         1.831809         0.568802
 H         2.690950         0.209467         1.517361
 H         1.626937         1.863570        -1.420422
 H         1.749313         0.396388        -2.374249
 H         5.291655        -1.825645        -0.723107
 H         4.763554        -0.988683         0.873582
 H         3.286931        -1.701652        -1.881041
