19
Iteration:  2394charge 0 multiplicity 1
 C        -0.137986        -0.025044         0.077388
 C         1.402191         0.033336        -0.181798
 C         2.526729         0.493538         0.690858
 C         3.258145         0.377038        -0.670104
 C         1.925895         0.870755        -1.297523
 O         4.782724         0.276653        -0.814248
 C         4.649901        -1.087212        -0.456053
 C         3.125727        -1.126454        -0.913929
 O         1.754122        -1.348531        -0.238033
 H        -0.509879        -0.812966         0.881778
 H        -0.339486         0.851398         0.655558
 H        -0.712016        -0.206088        -0.813162
 H         2.358381         1.549985         1.122414
 H         2.777703        -0.270773         1.525349
 H         1.699632         1.957340        -1.191502
 H         1.655067         0.539227        -2.283396
 H         5.260415        -1.906237        -0.995974
 H         4.807754        -1.144134         0.644410
 H         2.979793        -1.411659        -1.952181
