19
Iteration:   956charge 0 multiplicity 1
 C        -0.160570        -0.112397         0.212285
 C         1.357682         0.023628        -0.119766
 C         2.560962         0.589725         0.737176
 C         3.305953         0.361584        -0.675816
 C         1.997746         1.000109        -1.262316
 O         4.738045         0.253082        -0.780816
 C         4.597253        -1.203217        -0.472050
 C         3.051572        -1.069605        -0.919515
 O         1.790754        -1.388789        -0.417553
 H        -0.274763        -1.114148         0.603849
 H        -0.541528         0.666126         0.842384
 H        -0.548438         0.002598        -0.849425
 H         2.377091         1.645938         0.965172
 H         2.771146         0.042054         1.639097
 H         1.794972         2.066865        -1.258392
 H         1.707181         0.749019        -2.263994
 H         5.269026        -1.705459        -1.223398
 H         4.949792        -1.577588         0.494314
 H         3.077329        -1.258043        -2.030246
