19
Iteration:  1470charge 0 multiplicity 1
 C        -0.087455        -0.069375         0.310575
 C         1.357656         0.079066        -0.184100
 C         2.553707         0.537981         0.763467
 C         3.239152         0.410512        -0.662819
 C         1.956327         0.885062        -1.351472
 O         4.635161         0.252934        -0.693845
 C         4.541444        -1.236747        -0.448370
 C         3.130448        -1.054041        -1.043074
 O         1.869486        -1.340700        -0.467286
 H         0.030397        -0.231994         1.432432
 H        -0.536888         0.904650         0.208853
 H        -0.488201        -0.957624        -0.292414
 H         2.621817         1.571931         1.057074
 H         2.902886        -0.167174         1.515559
 H         1.774089         1.988550        -1.359880
 H         1.604292         0.408508        -2.351266
 H         5.371777        -1.620921        -1.039632
 H         4.655708        -1.529806         0.623991
 H         3.259492        -1.164451        -2.086669
