19
Iteration:  3035charge 0 multiplicity 1
 C        -0.174017        -0.052394         0.110350
 C         1.352979         0.025249        -0.126304
 C         2.559878         0.548415         0.699356
 C         3.261414         0.387269        -0.682392
 C         1.876918         0.875613        -1.407688
 O         4.660868         0.306384        -0.716424
 C         4.698619        -1.141141        -0.538183
 C         3.136886        -1.096850        -0.856745
 O         1.859752        -1.375024        -0.238842
 H        -0.502730         0.093238         1.164350
 H        -0.629047         0.787928        -0.571325
 H        -0.416624        -0.986667        -0.388458
 H         2.547950         1.546961         1.340507
 H         2.900203        -0.216816         1.416378
 H         1.723501         1.871088        -1.029540
 H         1.749991         0.471472        -2.488774
 H         5.176287        -1.695097        -1.330194
 H         5.048014        -1.516314         0.456087
 H         3.089272        -1.382673        -1.914565
