19
Iteration:  1907charge 0 multiplicity 1
 C        -0.080422         0.066910         0.126713
 C         1.399054        -0.046843        -0.108678
 C         2.556875         0.501718         0.792165
 C         3.187325         0.369568        -0.649742
 C         2.050532         0.978626        -1.303927
 O         4.618211         0.321210        -0.834192
 C         4.575963        -1.142121        -0.432963
 C         3.073158        -1.142610        -0.915554
 O         1.852820        -1.501843        -0.391291
 H        -0.493776        -0.154972         1.149532
 H        -0.492593         0.927725        -0.390406
 H        -0.428973        -0.749657        -0.449218
 H         2.498554         1.607225         1.020738
 H         2.903791        -0.162695         1.659082
 H         1.893031         1.943397        -0.833273
 H         1.717364         1.039599        -2.306281
 H         5.225749        -1.788201        -1.095659
 H         5.002448        -1.067311         0.556602
 H         3.054874        -1.310069        -2.056867
