19
Iteration:  1167
 C        -0.152217         0.095944         0.352294
 C         1.350697         0.005968        -0.205257
 C         2.501340         0.449413         0.707589
 C         3.212714         0.319786        -0.691418
 C         1.904353         0.942300        -1.303488
 O         4.733250         0.305460        -0.773788
 C         4.673192        -1.151271        -0.338119
 C         3.111364        -1.145758        -0.929968
 O         1.876671        -1.414803        -0.600419
 H        -0.516687        -0.770631         1.011914
 H        -0.288016         1.109640         0.985616
 H        -0.882496         0.295544        -0.391966
 H         2.650411         1.520198         0.927379
 H         2.791420        -0.308571         1.494700
 H         1.646533         1.929534        -1.182045
 H         1.623260         0.715310        -2.303650
 H         5.538993        -1.621927        -0.777056
 H         4.669666        -1.217413         0.751210
 H         3.361727        -1.677638        -1.897519
