19
Iteration:   391
 C        -0.006516         0.043640         0.286821
 C         1.388569        -0.051179        -0.184266
 C         2.524265         0.508550         0.658799
 C         3.256066         0.395699        -0.581597
 C         1.929269         0.886261        -1.329546
 O         4.687798         0.258170        -0.741483
 C         4.578669        -1.141423        -0.369230
 C         3.103804        -1.019475        -1.010365
 O         1.778088        -1.415483        -0.481874
 H        -0.269428        -0.978431         0.656581
 H        -0.132279         0.771243         1.020376
 H        -0.737488         0.297480        -0.495909
 H         2.373686         1.471375         1.009009
 H         2.985894        -0.180026         1.296408
 H         1.880352         1.878116        -1.104132
 H         1.665976         0.454776        -2.323660
 H         5.341767        -1.699572        -0.958118
 H         4.589900        -1.354141         0.677795
 H         3.125026        -1.184744        -2.112190
