19
Iteration:  2872
 C        -0.079378        -0.139014         0.093313
 C         1.374195         0.001681        -0.185168
 C         2.611026         0.670792         0.632011
 C         3.222009         0.304494        -0.675499
 C         1.993935         0.927919        -1.283261
 O         4.591118         0.346223        -0.763466
 C         4.619101        -1.176532        -0.439549
 C         3.054005        -1.140554        -0.881606
 O         1.866716        -1.414965        -0.254650
 H        -0.455577        -1.022852         0.637798
 H        -0.370695         0.878950         0.582525
 H        -0.582443         0.003739        -0.854202
 H         2.497299         1.733645         0.846450
 H         2.925390         0.279552         1.554685
 H         1.749651         1.956472        -0.961512
 H         1.731402         0.650040        -2.371918
 H         5.208884        -1.748857        -1.185613
 H         5.031910        -1.335932         0.603547
 H         2.967926        -1.259707        -1.936665
