19
Iteration:  2693
 C        -0.104394         0.086906         0.127293
 C         1.384535        -0.063688        -0.144368
 C         2.531594         0.547598         0.714138
 C         3.260143         0.339309        -0.670446
 C         1.942775         0.757986        -1.358540
 O         4.603895         0.372856        -0.795653
 C         4.693606        -1.029008        -0.447154
 C         3.163025        -1.169813        -0.846291
 O         1.795791        -1.458364        -0.314789
 H        -0.605633        -0.672955         0.722118
 H        -0.158872         1.080770         0.543924
 H        -0.532847         0.141209        -0.932818
 H         2.466738         1.597660         1.057192
 H         2.867082        -0.177300         1.514033
 H         1.526919         1.786966        -1.241376
 H         1.817586         0.519742        -2.433113
 H         5.368096        -1.718778        -0.956425
 H         4.922458        -1.101165         0.625568
 H         3.044953        -1.299292        -1.881562
