19
Iteration:  2607
 C        -0.105036        -0.069743         0.273007
 C         1.321263         0.005259        -0.198472
 C         2.490685         0.635518         0.646574
 C         3.244609         0.318886        -0.740355
 C         1.886474         0.882910        -1.361593
 O         4.752729         0.271248        -0.789333
 C         4.622960        -1.140463        -0.283811
 C         3.161062        -1.165361        -0.980689
 O         1.861044        -1.343442        -0.377772
 H        -0.168301        -0.746154         1.140478
 H        -0.477563         0.870554         0.694014
 H        -0.865446        -0.526650        -0.438880
 H         2.321413         1.700580         0.679484
 H         2.872784         0.403383         1.654390
 H         1.755075         2.004372        -1.257017
 H         1.753160         0.524669        -2.425891
 H         5.327691        -1.962462        -0.657135
 H         4.559577        -1.056796         0.847499
 H         3.210101        -1.238757        -2.081987
