19
Iteration:  2372
 C        -0.166792        -0.038533         0.095737
 C         1.405483         0.054381        -0.054418
 C         2.602255         0.618282         0.767398
 C         3.217377         0.328788        -0.662488
 C         2.048000         0.912824        -1.398988
 O         4.593050         0.306417        -0.785147
 C         4.554119        -1.227762        -0.434621
 C         3.111705        -1.111067        -0.885574
 O         1.870529        -1.420412        -0.383931
 H        -0.263988        -0.596123         1.152872
 H        -0.644920         0.847267         0.344641
 H        -0.483148        -0.753178        -0.645608
 H         2.383895         1.741649         0.934210
 H         2.945361         0.113187         1.765584
 H         1.858355         2.001704        -1.231064
 H         1.805785         0.683038        -2.419720
 H         5.248057        -1.788835        -1.201811
 H         4.865243        -1.336635         0.612384
 H         3.168968        -1.108827        -1.987746
