19
Iteration:  4764
 C        -0.090601        -0.012461         0.353410
 C         1.348647         0.000245        -0.151436
 C         2.530017         0.543406         0.571183
 C         3.248951         0.398110        -0.733111
 C         1.851660         0.843425        -1.514375
 O         4.732474         0.268877        -0.694635
 C         4.536973        -1.167452        -0.277541
 C         3.196186        -1.050589        -0.948283
 O         1.870220        -1.332196        -0.404026
 H        -0.383278        -1.070330         0.032702
 H        -0.123152        -0.049155         1.455218
 H        -0.749525         0.581740        -0.217589
 H         2.344180         1.555231         0.870004
 H         2.848301         0.123153         1.551761
 H         1.551617         1.878310        -1.565113
 H         1.743290         0.176866        -2.369804
 H         5.296460        -1.710411        -0.846475
 H         4.702942        -1.316327         0.831240
 H         3.235715        -1.381979        -2.020273
