19
Iteration:   806
 C        -0.115444        -0.036417         0.192795
 C         1.371555         0.063476        -0.148499
 C         2.530064         0.483347         0.713885
 C         3.251582         0.384682        -0.646518
 C         1.971590         0.907347        -1.322014
 O         4.752145         0.340428        -0.731057
 C         4.550736        -1.197390        -0.485507
 C         3.086791        -1.087669        -0.972311
 O         1.809616        -1.389326        -0.362801
 H        -0.141091        -0.978880         0.752920
 H        -0.415768         0.735669         0.859380
 H        -0.698312        -0.206789        -0.672588
 H         2.511344         1.605110         0.934466
 H         2.795888        -0.201796         1.573857
 H         1.830023         1.988077        -1.188770
 H         1.835813         0.492826        -2.295140
 H         5.231901        -1.702662        -1.221333
 H         4.809927        -1.335521         0.531567
 H         3.058171        -1.393288        -2.010040
