19
Iteration:  3392
 C        -0.144198        -0.056129         0.261206
 C         1.338885         0.035243        -0.195032
 C         2.535629         0.570847         0.672510
 C         3.244875         0.355036        -0.746413
 C         1.977871         0.763746        -1.530944
 O         4.661177         0.324360        -0.802199
 C         4.607371        -1.087976        -0.358500
 C         3.202980        -1.070364        -0.844256
 O         1.870964        -1.342203        -0.271938
 H        -0.834073        -0.548119        -0.471348
 H        -0.293863        -0.833411         1.154301
 H        -0.639955         0.862936         0.607605
 H         2.379046         1.590757         1.106422
 H         2.844046         0.037222         1.566030
 H         1.657182         1.794842        -1.641711
 H         1.703073         0.136947        -2.479374
 H         5.178851        -1.819096        -0.909276
 H         4.691258        -1.232548         0.752393
 H         3.213823        -1.396648        -1.860782
