19
Iteration:  4474
 C        -0.165343         0.004805         0.118641
 C         1.346491         0.023315        -0.056833
 C         2.621835         0.647269         0.643668
 C         3.211431         0.337997        -0.682173
 C         1.934808         0.872174        -1.315834
 O         4.635489         0.271327        -0.830952
 C         4.652057        -1.071246        -0.371641
 C         3.175301        -1.144145        -0.907719
 O         1.839505        -1.506532        -0.316142
 H        -0.616692        -0.390179        -0.798728
 H        -0.534414        -0.481357         1.016790
 H        -0.348174         1.040164         0.279085
 H         2.253711         1.657189         0.662950
 H         2.872104         0.265110         1.681003
 H         1.672157         1.897586        -1.384791
 H         1.816706         0.322392        -2.231531
 H         5.458607        -1.579382        -0.970020
 H         4.892495        -1.100057         0.714134
 H         3.183096        -1.492093        -2.006773
