19
Iteration:  4389
 C        -0.033744        -0.057293         0.262451
 C         1.418061         0.042760        -0.133401
 C         2.551308         0.660816         0.614799
 C         3.180293         0.349578        -0.737932
 C         1.807794         0.741179        -1.454590
 O         4.748307         0.269286        -0.751823
 C         4.610520        -1.083262        -0.302355
 C         3.134166        -1.133299        -0.893948
 O         1.834724        -1.362683        -0.372409
 H        -0.665452        -0.173842        -0.618351
 H        -0.153686        -0.907521         0.919661
 H        -0.434891         0.856200         0.607802
 H         2.357200         1.695118         0.707551
 H         2.884428         0.223370         1.556867
 H         1.678029         1.770268        -1.369695
 H         1.453944         0.382750        -2.412752
 H         5.280717        -1.778739        -0.794977
 H         4.622528        -1.064694         0.809464
 H         3.200979        -1.330802        -1.935460
