19
Iteration:  3639charge 0 multiplicity 1
 C        -0.188788        -0.061114         0.220845
 C         1.300880         0.040459        -0.214050
 C         2.542000         0.651622         0.598828
 C         3.242021         0.390599        -0.626165
 C         1.854253         0.840587        -1.432150
 O         4.727417         0.255616        -0.778188
 C         4.689998        -1.107321        -0.417208
 C         3.174710        -1.132563        -0.882991
 O         1.850369        -1.377868        -0.255909
 H        -0.620222        -0.955053        -0.280656
 H        -0.152604        -0.335155         1.294829
 H        -0.750191         0.820655         0.133550
 H         2.463813         1.711117         0.954684
 H         2.896782         0.044170         1.440496
 H         1.771807         1.883591        -1.341566
 H         1.822744         0.416653        -2.456237
 H         5.260799        -1.863209        -1.085351
 H         5.063172        -1.294808         0.634060
 H         3.186379        -1.510769        -1.968508
