19
Iteration:  2039
 C        -0.062553         0.032936         0.134930
 C         1.398641        -0.026137        -0.053682
 C         2.531154         0.451011         0.743064
 C         3.255140         0.339780        -0.662651
 C         1.987304         0.910715        -1.319765
 O         4.693313         0.347747        -0.869156
 C         4.576454        -1.097443        -0.368057
 C         3.099868        -1.158951        -1.003656
 O         1.785254        -1.437240        -0.358849
 H        -0.520710        -0.534221         0.908943
 H        -0.301801         1.094591         0.464274
 H        -0.551111        -0.143041        -0.782810
 H         2.453683         1.584256         0.796646
 H         2.671011         0.034933         1.812206
 H         1.649865         1.872976        -0.909368
 H         1.982764         0.790763        -2.352497
 H         5.418181        -1.672266        -0.845764
 H         4.691277        -1.234151         0.723209
 H         2.987369        -1.366651        -2.069759
