19
Iteration:  1059charge 0 multiplicity 1
 C        -0.131301        -0.072976         0.234777
 C         1.340153         0.080882        -0.175436
 C         2.557690         0.459707         0.739948
 C         3.284291         0.332531        -0.581055
 C         2.050238         0.971343        -1.322386
 O         4.661348         0.315031        -0.746481
 C         4.557398        -1.205910        -0.460058
 C         3.091672        -1.075902        -1.101040
 O         1.817474        -1.365551        -0.392615
 H        -0.303536        -0.481282         1.264232
 H        -0.550055         1.003635         0.060099
 H        -0.653714        -0.772050        -0.397207
 H         2.644495         1.497643         1.219571
 H         2.728828        -0.199547         1.694688
 H         1.918867         2.021894        -1.066136
 H         2.012223         0.561025        -2.341457
 H         5.347914        -1.765908        -0.972150
 H         4.641903        -1.217425         0.637549
 H         3.116942        -1.289435        -2.151558
