19
Iteration:  3128
 C        -0.158543        -0.069415         0.359872
 C         1.289899         0.046785        -0.241866
 C         2.549343         0.595080         0.645092
 C         3.209202         0.386951        -0.737821
 C         1.874098         0.812661        -1.501519
 O         4.715679         0.291657        -0.730188
 C         4.585180        -1.141147        -0.284073
 C         3.211299        -1.088872        -0.903727
 O         1.906997        -1.374343        -0.421096
 H        -0.245886        -1.078865         0.844213
 H        -0.206658         0.563781         1.171275
 H        -0.959131         0.211225        -0.351467
 H         2.402461         1.636577         0.806120
 H         2.942088         0.082158         1.573075
 H         1.629278         1.903829        -1.452556
 H         1.815431         0.276290        -2.387733
 H         5.307127        -1.811328        -0.883445
 H         4.793246        -1.214389         0.767480
 H         3.402533        -1.324149        -1.960280
