19
Iteration:  2839charge 0 multiplicity 1
 C        -0.170690        -0.010797         0.172551
 C         1.342362         0.040845        -0.118747
 C         2.461139         0.488821         0.788522
 C         3.271786         0.371873        -0.697597
 C         1.951640         0.814065        -1.324883
 O         4.738453         0.309540        -0.904081
 C         4.635334        -1.122999        -0.364851
 C         3.131196        -1.036967        -0.930601
 O         1.892349        -1.403424        -0.347487
 H        -0.559643        -0.313131         1.175268
 H        -0.493898         1.078349         0.121046
 H        -0.544542        -0.663195        -0.580409
 H         2.267226         1.482190         1.207876
 H         2.774419        -0.325993         1.393643
 H         1.684519         1.905202        -1.359445
 H         1.654544         0.343063        -2.333110
 H         5.319479        -1.838599        -0.904513
 H         4.728487        -1.107148         0.755178
 H         3.178661        -1.171190        -2.002439
