19
Iteration:  3875charge 0 multiplicity 1
 C        -0.118138        -0.025131         0.172974
 C         1.371120        -0.064321        -0.023978
 C         2.553276         0.667052         0.625488
 C         3.222316         0.366754        -0.710724
 C         1.954645         0.858546        -1.407277
 O         4.649811         0.326844        -0.768922
 C         4.627108        -1.119123        -0.417972
 C         3.185997        -1.166743        -0.895903
 O         1.819991        -1.399180        -0.315425
 H        -0.562666        -0.982537        -0.175549
 H        -0.424775        -0.009432         1.168408
 H        -0.623657         0.690968        -0.465494
 H         2.327930         1.708120         0.763733
 H         2.996860         0.320192         1.508863
 H         1.688943         1.868128        -1.244735
 H         1.723295         0.314321        -2.371890
 H         5.396438        -1.793564        -0.965543
 H         4.912620        -1.019978         0.644603
 H         3.061750        -1.717360        -1.877447
