19
Iteration:   849
 C        -0.061091        -0.058731         0.295332
 C         1.362127        -0.038004        -0.196394
 C         2.534533         0.477813         0.696419
 C         3.309725         0.402482        -0.710450
 C         1.964577         0.925498        -1.299932
 O         4.778222         0.304016        -0.718644
 C         4.560058        -1.165084        -0.396653
 C         3.072685        -1.050022        -0.983346
 O         1.757561        -1.356174        -0.502173
 H        -0.111586        -0.309176         1.366802
 H        -0.411237         0.955709         0.200152
 H        -0.724243        -0.784004        -0.209758
 H         2.392719         1.567383         1.108901
 H         2.937362        -0.144357         1.594433
 H         1.506188         1.899954        -1.036036
 H         1.793662         0.561163        -2.297944
 H         5.188464        -1.941296        -0.922672
 H         4.448953        -1.237531         0.650645
 H         3.069138        -1.234250        -2.046545
