19
Iteration:   381
 C        -0.015791         0.064182         0.337968
 C         1.360021        -0.008373        -0.166424
 C         2.500630         0.451421         0.738267
 C         3.236580         0.374116        -0.672328
 C         1.941946         0.955492        -1.351972
 O         4.647797         0.260384        -0.811552
 C         4.584786        -1.141641        -0.331783
 C         3.140658        -1.097627        -0.947748
 O         1.859990        -1.415691        -0.546225
 H        -0.469743        -0.914612         0.740733
 H         0.007657         0.802909         1.095438
 H        -0.644742         0.301503        -0.530368
 H         2.252823         1.365768         1.189472
 H         2.568740        -0.231992         1.552534
 H         1.680721         2.002277        -1.295038
 H         1.858092         0.686069        -2.465983
 H         5.410464        -1.753342        -0.797289
 H         4.553804        -1.251986         0.747067
 H         3.241917        -1.270379        -2.049722
