19
Iteration:  1659
 C        -0.037971         0.037718         0.311352
 C         1.357086        -0.047805        -0.126828
 C         2.562007         0.429157         0.729448
 C         3.221625         0.336878        -0.663780
 C         1.987183         0.927675        -1.382500
 O         4.679423         0.306007        -0.782286
 C         4.501292        -1.100102        -0.318023
 C         3.164804        -1.060256        -0.953724
 O         1.783839        -1.413139        -0.570846
 H         0.009435        -0.392718         1.303629
 H        -0.487615         1.048193         0.567338
 H        -0.636095        -0.570474        -0.290721
 H         2.585076         1.399602         1.206363
 H         2.711371        -0.444258         1.350986
 H         1.595348         2.019960        -1.145149
 H         1.985840         0.660888        -2.515775
 H         5.269700        -1.644284        -0.952487
 H         4.805654        -1.034727         0.741213
 H         3.242044        -1.185249        -2.032725
