19
Iteration:   781
 C        -0.143315         0.076331         0.165437
 C         1.366131        -0.038166        -0.127801
 C         2.548761         0.517890         0.807374
 C         3.200726         0.382118        -0.609031
 C         1.986184         0.872937        -1.313461
 O         4.661424         0.320717        -0.802464
 C         4.716550        -1.167495        -0.514154
 C         3.111735        -1.104317        -0.908579
 O         1.782093        -1.453587        -0.424700
 H        -0.552135        -0.810025         0.585425
 H        -0.170869         0.846378         0.901045
 H        -0.734866         0.291819        -0.812275
 H         2.431270         1.622648         1.154189
 H         2.877326        -0.245986         1.602856
 H         1.667237         1.926725        -1.101543
 H         1.863210         0.498893        -2.331180
 H         5.510831        -1.613017        -1.156637
 H         5.011870        -1.116216         0.519236
 H         3.123913        -1.326770        -1.982142
