19
Iteration:  4727charge 0 multiplicity 1
 C        -0.011507         0.014680         0.323793
 C         1.399231        -0.046095        -0.167205
 C         2.494945         0.548056         0.615743
 C         3.229074         0.363080        -0.715752
 C         1.927948         0.900674        -1.431371
 O         4.621228         0.301039        -0.768542
 C         4.590724        -1.067851        -0.254934
 C         3.176196        -1.152898        -0.933421
 O         1.849860        -1.444995        -0.440662
 H        -0.568821        -0.780865        -0.138292
 H        -0.132627        -0.032910         1.401972
 H        -0.508020         1.023093         0.110376
 H         2.194389         1.666462         0.517303
 H         2.727283         0.103595         1.604928
 H         1.758496         1.988888        -1.422554
 H         1.761355         0.525297        -2.457691
 H         5.351870        -1.816088        -0.635141
 H         4.480507        -1.141774         0.859460
 H         3.289308        -1.527762        -1.996556
