19
Iteration:   654
 C        -0.022069         0.017300         0.261610
 C         1.377604        -0.000378        -0.109309
 C         2.598301         0.477278         0.672208
 C         3.254905         0.289745        -0.627534
 C         1.912724         0.915085        -1.337846
 O         4.640735         0.306880        -0.687430
 C         4.574224        -1.137039        -0.487123
 C         3.103684        -1.090956        -1.004000
 O         1.811333        -1.362969        -0.448807
 H        -0.097037        -0.253923         1.415438
 H        -0.553836         0.962800        -0.108755
 H        -0.482755        -0.729673        -0.455411
 H         2.571539         1.513491         1.046504
 H         2.728545        -0.186949         1.574382
 H         1.632374         2.015632        -1.196869
 H         1.752537         0.578101        -2.339809
 H         5.491905        -1.703749        -0.971361
 H         4.661629        -1.231570         0.664652
 H         3.037015        -1.295066        -2.122823
