19
Iteration:  3535charge 0 multiplicity 1
 C        -0.075076        -0.028176         0.125676
 C         1.373831         0.010536        -0.166633
 C         2.566580         0.642775         0.699010
 C         3.181676         0.418547        -0.664472
 C         1.977591         0.771378        -1.372240
 O         4.648135         0.374343        -0.912023
 C         4.582685        -1.124212        -0.409736
 C         3.136364        -1.123762        -0.792771
 O         1.878530        -1.485120        -0.229515
 H        -0.550077        -0.260974        -0.814938
 H        -0.346156        -0.909322         0.791863
 H        -0.640023         0.899461         0.471428
 H         2.276515         1.667177         0.868661
 H         3.003110         0.185324         1.581536
 H         1.632345         1.855196        -1.410691
 H         1.857583         0.247669        -2.323334
 H         5.098131        -1.799251        -0.994702
 H         4.693652        -1.253468         0.656198
 H         3.196699        -1.239196        -1.841579
