19
Iteration:  1347charge 0 multiplicity 1
 C        -0.067881        -0.066898         0.327470
 C         1.357205         0.063290        -0.192779
 C         2.509256         0.584194         0.714621
 C         3.274006         0.321929        -0.624482
 C         1.915982         0.899001        -1.392497
 O         4.757331         0.275630        -0.711636
 C         4.537986        -1.178101        -0.401064
 C         3.110344        -1.069174        -1.071976
 O         1.823826        -1.361156        -0.442876
 H        -0.079715        -0.937697         1.051334
 H        -0.398918         0.817346         0.887471
 H        -0.699832        -0.381949        -0.634113
 H         2.562567         1.704893         0.958295
 H         2.914034         0.042397         1.625479
 H         1.629506         1.993540        -1.211762
 H         1.815600         0.537846        -2.471863
 H         5.387255        -1.757906        -0.840714
 H         4.323919        -1.457238         0.645909
 H         3.174467        -1.416362        -2.110170
