19
Iteration:  1229charge 0 multiplicity 1
 C        -0.184911        -0.036397         0.210389
 C         1.271351         0.068008        -0.165472
 C         2.473709         0.564738         0.726574
 C         3.234880         0.372383        -0.657486
 C         2.032796         0.979276        -1.322189
 O         4.714159         0.249680        -0.730781
 C         4.646150        -1.228773        -0.508764
 C         3.110819        -1.078683        -0.998458
 O         1.895515        -1.421897        -0.353535
 H        -0.330505        -0.608227         1.173720
 H        -0.379426         0.974446         0.538645
 H        -0.705329        -0.546866        -0.609080
 H         2.534643         1.595519         1.020387
 H         2.897737        -0.014542         1.501789
 H         2.021195         2.109648        -1.003981
 H         1.791256         0.592686        -2.382626
 H         5.415698        -1.808286        -1.093799
 H         4.752228        -1.541306         0.558256
 H         2.799603        -1.260621        -2.027568
