19
Iteration:  3728
 C        -0.018885         0.041060         0.288352
 C         1.399018         0.014068        -0.172332
 C         2.535950         0.579122         0.598281
 C         3.208543         0.308990        -0.695069
 C         1.955161         0.707296        -1.455512
 O         4.586050         0.343675        -0.786426
 C         4.676948        -1.043327        -0.293671
 C         3.097529        -1.154335        -0.931736
 O         1.801014        -1.388674        -0.349282
 H        -0.825504        -0.255964        -0.319590
 H        -0.086327        -0.736905         1.129884
 H        -0.546829         0.957837         0.620969
 H         2.545161         1.685123         0.757800
 H         2.861217         0.119908         1.567829
 H         1.786701         1.805751        -1.529374
 H         1.785012         0.286663        -2.436938
 H         5.406192        -1.684808        -0.824404
 H         4.887596        -0.991848         0.855565
 H         3.306443        -1.476288        -1.970363
