19
Iteration:   833
 C        -0.095179        -0.046127         0.293785
 C         1.378245         0.042078        -0.154520
 C         2.516695         0.571886         0.684099
 C         3.194087         0.361888        -0.621776
 C         1.895276         1.023204        -1.314250
 O         4.727209         0.213824        -0.721927
 C         4.513162        -1.172570        -0.414455
 C         3.170532        -1.099965        -1.073713
 O         1.893788        -1.430386        -0.447386
 H        -0.121298        -0.614496         1.243248
 H        -0.565888         0.967653         0.477795
 H        -0.549584        -0.705272        -0.529656
 H         2.407638         1.592617         0.720517
 H         2.730444        -0.017897         1.522252
 H         1.996715         2.060593        -0.967995
 H         1.716713         0.902000        -2.414136
 H         5.349526        -1.625291        -0.921517
 H         4.578921        -1.480858         0.700753
 H         3.216886        -1.357445        -2.171639
