19
Iteration:  4044
 C        -0.143032        -0.054896         0.203026
 C         1.348003        -0.009552        -0.196100
 C         2.565816         0.547685         0.612794
 C         3.195307         0.430434        -0.714565
 C         1.918167         0.837009        -1.478371
 O         4.718655         0.340685        -0.804952
 C         4.559762        -1.069474        -0.384383
 C         3.152039        -1.134526        -0.861271
 O         1.902650        -1.430752        -0.198635
 H        -0.717003        -0.449785        -0.640305
 H        -0.255979        -0.642553         1.171725
 H        -0.447241         1.019916         0.404034
 H         2.476109         1.581018         1.021372
 H         2.973381        -0.055281         1.433381
 H         1.708327         1.853650        -1.213739
 H         1.832039         0.506694        -2.496777
 H         5.318263        -1.575127        -0.942602
 H         4.597259        -1.309937         0.754810
 H         2.993045        -1.621542        -1.864713
