19
Iteration:  3039
 C        -0.178744        -0.049662         0.123708
 C         1.341421         0.032755        -0.153977
 C         2.552782         0.535575         0.699265
 C         3.268430         0.400235        -0.701591
 C         1.877292         0.840471        -1.387853
 O         4.719555         0.318906        -0.739440
 C         4.683121        -1.143531        -0.515674
 C         3.139207        -1.090771        -0.853228
 O         1.834994        -1.367137        -0.230809
 H        -0.479683         0.084065         1.128389
 H        -0.535463         0.719005        -0.548160
 H        -0.570637        -0.955110        -0.397683
 H         2.559881         1.354523         1.345482
 H         2.793567        -0.242333         1.420844
 H         1.599274         1.860088        -0.981323
 H         1.781283         0.524176        -2.435700
 H         5.226970        -1.598210        -1.373071
 H         5.060633        -1.476987         0.482235
 H         3.059981        -1.368753        -1.894791
