19
Iteration:  2633
 C        -0.014731        -0.148642         0.238224
 C         1.381462         0.067123        -0.169963
 C         2.629673         0.615830         0.631697
 C         3.268547         0.425307        -0.811246
 C         1.966215         0.867418        -1.477435
 O         4.637257         0.299964        -0.716178
 C         4.527485        -1.107312        -0.269712
 C         3.056462        -1.168364        -0.866388
 O         1.791208        -1.390809        -0.378655
 H        -0.216323        -1.097979         0.830645
 H        -0.191105         0.601075         1.037496
 H        -0.817845        -0.063598        -0.449825
 H         2.334495         1.616765         1.014965
 H         3.187058         0.042512         1.361061
 H         1.822339         1.955814        -1.444406
 H         1.652240         0.371552        -2.380235
 H         5.231874        -1.824336        -0.774376
 H         4.722388        -0.945671         0.765395
 H         3.203870        -1.392493        -2.005830
