19
Iteration:  3268
 C        -0.086227        -0.081277         0.416747
 C         1.343626         0.031211        -0.201818
 C         2.616184         0.699592         0.537858
 C         3.227212         0.356744        -0.817293
 C         1.895445         0.761128        -1.567661
 O         4.709542         0.375650        -0.704667
 C         4.556918        -1.108738        -0.229503
 C         3.173867        -1.157276        -0.874129
 O         1.836975        -1.430166        -0.399803
 H        -0.913249         0.086148        -0.376516
 H        -0.370122        -1.063132         0.702109
 H        -0.306701         0.580129         1.329058
 H         2.441069         1.771115         0.581904
 H         2.997429         0.294410         1.510610
 H         1.506673         1.810066        -1.462982
 H         1.673470         0.201923        -2.439493
 H         5.427150        -1.763514        -0.543141
 H         4.511214        -1.131647         0.829887
 H         3.137861        -1.502999        -1.892780
