19
Iteration:   215
 C         0.020829         0.064749         0.294877
 C         1.376755        -0.108220        -0.256806
 C         2.524057         0.474274         0.744706
 C         3.245337         0.343296        -0.662747
 C         1.938019         0.996429        -1.315385
 O         4.700368         0.259558        -0.807149
 C         4.535361        -1.051748        -0.372656
 C         3.108455        -1.136426        -0.970477
 O         1.798686        -1.442168        -0.496450
 H        -0.059325        -0.726680         1.055523
 H        -0.020637         1.008087         1.015374
 H        -0.896793         0.138560        -0.462042
 H         2.338625         1.415403         1.351388
 H         2.823609        -0.404037         1.403030
 H         1.624650         2.119329        -1.021250
 H         1.612776         0.940640        -2.410375
 H         5.426187        -1.621003        -0.639885
 H         4.539755        -1.013861         0.769664
 H         3.209721        -1.505518        -2.013105
