19
Iteration:  1726
 C        -0.125108        -0.012402         0.163734
 C         1.396249        -0.035303        -0.130998
 C         2.534110         0.538266         0.767596
 C         3.252298         0.458238        -0.592384
 C         1.941050         0.857283        -1.344909
 O         4.727359         0.303454        -0.695800
 C         4.612785        -1.192349        -0.605994
 C         3.116804        -1.047027        -0.949060
 O         1.809780        -1.379821        -0.349770
 H        -0.334411        -0.377514         1.123324
 H        -0.662201         0.990124        -0.033974
 H        -0.431489        -0.739300        -0.566162
 H         2.619236         1.478785         1.256310
 H         2.769692        -0.274795         1.446901
 H         1.656635         1.951563        -1.084860
 H         1.855026         0.419433        -2.395185
 H         5.039307        -1.877511        -1.356640
 H         4.692083        -1.558549         0.458316
 H         3.035931        -1.161292        -2.066046
