19
Iteration:  1873
 C        -0.201385         0.040088         0.168154
 C         1.331032         0.025877        -0.114328
 C         2.562601         0.537095         0.778838
 C         3.254229         0.357149        -0.629248
 C         1.921862         0.856195        -1.381932
 O         4.757016         0.306970        -0.735643
 C         4.599316        -1.199410        -0.517278
 C         3.085336        -1.046375        -0.962222
 O         1.889466        -1.390533        -0.377862
 H        -0.347541        -0.268094         1.270615
 H        -0.756160         0.911405        -0.019612
 H        -0.434422        -0.802242        -0.451217
 H         2.595298         1.528231         1.350526
 H         2.704858        -0.270795         1.560781
 H         1.745997         1.867694        -1.129628
 H         1.680641         0.486592        -2.385545
 H         5.286875        -1.832481        -1.192513
 H         4.833168        -1.473146         0.520620
 H         3.283112        -1.228611        -2.068828
