19
Iteration:   374charge 0 multiplicity 1
 C        -0.077304         0.063245         0.337564
 C         1.386106        -0.002293        -0.194170
 C         2.468480         0.401751         0.794175
 C         3.214558         0.358057        -0.719309
 C         1.988851         0.965101        -1.356589
 O         4.681915         0.296794        -0.832487
 C         4.558381        -1.139082        -0.334336
 C         3.168177        -1.141234        -0.951518
 O         1.854133        -1.415263        -0.553503
 H        -0.309564        -0.872108         0.945701
 H        -0.236400         0.883156         1.155121
 H        -0.752434         0.496419        -0.410831
 H         2.389436         1.536520         1.084070
 H         2.628326        -0.305885         1.709893
 H         1.528012         2.052963        -1.159233
 H         1.849313         0.717477        -2.432356
 H         5.340277        -1.822367        -0.694683
 H         4.682018        -1.045309         0.789647
 H         3.387640        -1.392826        -1.993241
