19
Iteration:  3777charge 0 multiplicity 1
 C        -0.060821        -0.091810         0.366548
 C         1.359444         0.015656        -0.190883
 C         2.521627         0.643525         0.613392
 C         3.228323         0.423812        -0.786771
 C         1.812289         0.747897        -1.491751
 O         4.749402         0.205207        -0.801843
 C         4.547075        -1.087048        -0.216544
 C         3.222647        -1.098032        -0.912803
 O         1.870179        -1.308937        -0.383296
 H        -0.927650         0.060120        -0.336219
 H        -0.225497        -0.918822         1.028472
 H        -0.222283         0.883344         0.803377
 H         2.409260         1.684717         0.879083
 H         3.026507         0.184764         1.421878
 H         1.338965         1.730349        -1.544880
 H         1.706283         0.271616        -2.518876
 H         5.350339        -1.816663        -0.532622
 H         4.389129        -1.110645         0.881873
 H         3.249147        -1.532080        -1.956979
