19
Iteration:  1119
 C        -0.165032         0.066072         0.221865
 C         1.412039         0.027258        -0.133886
 C         2.520975         0.447356         0.791722
 C         3.238764         0.356054        -0.646624
 C         2.001372         0.889321        -1.311327
 O         4.669117         0.309656        -0.716638
 C         4.574160        -1.179959        -0.474643
 C         3.139865        -1.079164        -1.004749
 O         1.866626        -1.414163        -0.442840
 H        -0.382683        -0.378204         1.236470
 H        -0.538088         1.086815         0.177434
 H        -0.862017        -0.440987        -0.618942
 H         2.437592         1.474995         1.082055
 H         2.843074        -0.249172         1.499384
 H         1.910618         2.060566        -1.248268
 H         1.698616         0.667048        -2.378271
 H         5.174320        -1.746857        -1.225777
 H         4.885920        -1.380591         0.572341
 H         3.166643        -1.322121        -2.107546
