19
Iteration:  1586
 C        -0.084723        -0.037752         0.163093
 C         1.332453         0.048114        -0.138277
 C         2.508369         0.539302         0.809223
 C         3.262659         0.329340        -0.607778
 C         2.038877         0.916972        -1.324214
 O         4.704749         0.303060        -0.805958
 C         4.588039        -1.129284        -0.566711
 C         3.096322        -1.116906        -0.965283
 O         1.831214        -1.413875        -0.338779
 H        -0.488017        -0.994109         0.447438
 H        -0.516658         0.587059         1.076249
 H        -0.603483         0.241840        -0.802709
 H         2.302984         1.622549         1.125209
 H         2.757007        -0.100883         1.702137
 H         1.763329         1.892232        -1.009077
 H         1.883555         0.678069        -2.338044
 H         5.420165        -1.555494        -1.091913
 H         4.582701        -1.309184         0.540417
 H         2.992343        -1.462712        -2.033242
