19
Iteration:  1073
 C        -0.086033        -0.079753         0.163399
 C         1.376588         0.015506        -0.081321
 C         2.567092         0.523693         0.741273
 C         3.244861         0.401779        -0.634953
 C         2.053596         0.959092        -1.277119
 O         4.673301         0.256783        -0.741750
 C         4.518470        -1.221505        -0.507348
 C         3.075753        -1.045277        -0.923256
 O         1.835794        -1.346287        -0.434639
 H        -0.256795        -0.343138         1.225209
 H        -0.743564         0.773009        -0.134868
 H        -0.378752        -0.973217        -0.569100
 H         2.450620         1.585184         0.991102
 H         2.948437        -0.236981         1.500900
 H         1.694681         2.098912        -1.190499
 H         1.873727         0.795703        -2.393651
 H         5.191955        -1.794356        -1.182243
 H         4.631272        -1.578900         0.567939
 H         3.009540        -1.109775        -2.014079
