19
Iteration:  1958
 C        -0.053389         0.032758         0.279725
 C         1.369339        -0.064236        -0.169421
 C         2.583540         0.609945         0.654058
 C         3.184864         0.438084        -0.678514
 C         1.929431         0.951718        -1.324569
 O         4.689509         0.306500        -0.706250
 C         4.579035        -1.233576        -0.373420
 C         3.156591        -1.150852        -0.931652
 O         1.812431        -1.451529        -0.516358
 H        -0.121487        -0.796080         1.082822
 H        -0.236987         0.951348         0.768476
 H        -0.859718        -0.199937        -0.482641
 H         2.373882         1.655733         0.876770
 H         2.812873         0.011740         1.493605
 H         1.684464         2.014137        -1.347583
 H         1.625038         0.472637        -2.332499
 H         5.404201        -1.624504        -1.008318
 H         4.711495        -1.369986         0.725156
 H         3.151862        -1.378442        -1.949855
