19
Iteration:  1843
 C        -0.023532        -0.003095         0.280835
 C         1.364861        -0.077256        -0.189508
 C         2.500453         0.591019         0.722915
 C         3.249126         0.309121        -0.653928
 C         1.996203         0.921346        -1.415823
 O         4.718947         0.324718        -0.677803
 C         4.631380        -1.168201        -0.441773
 C         3.059738        -1.093378        -0.996984
 O         1.768418        -1.384768        -0.435794
 H         0.013729        -0.723125         1.173290
 H        -0.437717         1.019657         0.663649
 H        -0.715117        -0.482844        -0.391211
 H         2.239973         1.628949         0.993487
 H         2.693801        -0.053038         1.611970
 H         1.823176         1.976037        -1.140795
 H         1.710301         0.684900        -2.446191
 H         5.334005        -1.711072        -1.091662
 H         4.657009        -1.306649         0.631560
 H         3.114410        -1.402384        -2.115475
