19
Iteration:  4065charge 0 multiplicity 1
 C         0.002294        -0.008931         0.321835
 C         1.388509        -0.047216        -0.178533
 C         2.496511         0.605809         0.603949
 C         3.146352         0.299954        -0.800204
 C         1.947371         0.862497        -1.443107
 O         4.633557         0.377697        -0.736838
 C         4.592565        -1.084730        -0.293887
 C         3.139031        -1.177894        -0.937620
 O         1.852664        -1.450227        -0.357887
 H        -0.528699        -0.722470        -0.252868
 H         0.095939        -0.224794         1.419603
 H        -0.250783         1.005024         0.019718
 H         2.394667         1.703407         0.668444
 H         2.702335         0.239966         1.625889
 H         1.692918         1.875951        -1.152549
 H         1.758005         0.425613        -2.378675
 H         5.425000        -1.599032        -0.780868
 H         4.648032        -1.079398         0.893749
 H         3.295963        -1.437472        -2.076570
