19
Iteration:  2325charge 0 multiplicity 1
 C        -0.097765         0.059142         0.344605
 C         1.266403        -0.001724        -0.233051
 C         2.515687         0.469226         0.642511
 C         3.233678         0.407151        -0.685230
 C         1.904631         0.932208        -1.390423
 O         4.716677         0.263340        -0.688228
 C         4.604817        -1.172021        -0.361720
 C         3.170555        -1.070274        -0.936688
 O         1.866133        -1.408871        -0.473699
 H        -0.169611         0.238655         1.395026
 H        -0.423946         1.018706        -0.106037
 H        -0.595249        -0.919398        -0.022615
 H         2.450268         1.411836         1.259125
 H         2.958944        -0.336939         1.271836
 H         1.861817         1.978445        -1.510842
 H         1.587219         0.378730        -2.314864
 H         5.349303        -1.780952        -0.975748
 H         4.757774        -1.346420         0.721061
 H         3.289575        -1.373091        -1.946153
