19
Iteration:  2287
 C        -0.010516         0.038300         0.242810
 C         1.389561        -0.054433        -0.208205
 C         2.499036         0.503250         0.679233
 C         3.247067         0.333721        -0.682684
 C         1.961693         0.940253        -1.278846
 O         4.706501         0.353186        -0.797735
 C         4.555818        -1.132809        -0.309902
 C         3.133366        -1.191334        -0.911128
 O         1.762511        -1.423158        -0.490774
 H        -0.005904        -0.316428         1.331048
 H        -0.394358         1.074010         0.114848
 H        -0.763272        -0.492174        -0.281426
 H         2.391984         1.542371         0.917386
 H         2.782453        -0.189896         1.454549
 H         1.788245         2.066076        -1.097938
 H         1.873157         0.728024        -2.352562
 H         5.408712        -1.538030        -0.839181
 H         4.529712        -1.219153         0.792311
 H         3.140431        -1.359166        -2.061577
