19
Iteration:  1466
 C        -0.051736        -0.061278         0.284038
 C         1.378655         0.052888        -0.179356
 C         2.544988         0.531576         0.765972
 C         3.228232         0.418962        -0.675996
 C         1.965705         0.895264        -1.349176
 O         4.608008         0.248540        -0.708126
 C         4.538604        -1.220361        -0.437673
 C         3.100180        -1.052029        -1.029026
 O         1.890212        -1.353592        -0.466234
 H        -0.106377        -0.257356         1.347810
 H        -0.622910         0.856051         0.253023
 H        -0.505323        -0.865919        -0.277750
 H         2.808157         1.595633         1.108057
 H         2.916990        -0.080099         1.625861
 H         1.845258         1.957522        -1.283564
 H         1.661304         0.450053        -2.239061
 H         5.375244        -1.624179        -1.006984
 H         4.608221        -1.511066         0.605813
 H         3.157756        -1.194299        -2.150512
