19
Iteration:   303
 C        -0.163322        -0.002745         0.207310
 C         1.287513        -0.056837        -0.117913
 C         2.497798         0.555341         0.777196
 C         3.305389         0.391073        -0.524855
 C         2.003542         0.979441        -1.339947
 O         4.759526         0.231276        -0.723938
 C         4.610568        -1.196581        -0.609737
 C         3.100131        -1.017425        -1.078953
 O         1.856938        -1.424233        -0.320592
 H        -0.242676        -0.321899         1.265081
 H        -0.679805         0.911874        -0.058661
 H        -0.636003        -0.731737        -0.519295
 H         2.439100         1.626944         0.813064
 H         2.767833        -0.049693         1.595364
 H         1.601956         1.963707        -1.044642
 H         1.927242         0.691124        -2.512422
 H         5.357876        -1.838038        -1.112235
 H         4.565987        -1.502089         0.457526
 H         2.910695        -1.068147        -2.179255
