19
Iteration:  4741
 C        -0.034031         0.018340         0.354014
 C         1.352349        -0.067477        -0.261531
 C         2.505305         0.707080         0.575137
 C         3.211927         0.346651        -0.750275
 C         1.927395         0.841638        -1.396722
 O         4.776997         0.303500        -0.708959
 C         4.501442        -1.080658        -0.267890
 C         3.128493        -1.135282        -0.969569
 O         1.826392        -1.505731        -0.439390
 H        -0.658955        -0.879673         0.121434
 H         0.209442        -0.068770         1.439502
 H        -0.612825         0.800923        -0.139212
 H         2.357690         1.765808         0.948397
 H         2.974664         0.232806         1.515299
 H         1.561248         1.731900        -0.899276
 H         1.746870         0.667847        -2.462677
 H         5.449204        -1.605594        -0.600536
 H         4.546421        -1.151974         0.880562
 H         3.226770        -1.402129        -2.094294
