19
Iteration:  4055
 C        -0.015300        -0.005839         0.243459
 C         1.394992        -0.059905        -0.161243
 C         2.512653         0.583938         0.592095
 C         3.251783         0.338000        -0.786460
 C         1.959067         0.861043        -1.459535
 O         4.605789         0.368021        -0.738630
 C         4.575737        -1.063544        -0.336521
 C         3.101281        -1.142116        -0.931368
 O         1.885083        -1.456105        -0.252443
 H        -0.653816        -0.677442        -0.339776
 H        -0.149316        -0.453644         1.277966
 H        -0.535762         0.994706         0.268194
 H         2.351543         1.670525         0.806690
 H         2.883184        -0.053470         1.399626
 H         1.669545         1.884423        -1.303798
 H         1.664032         0.692943        -2.478023
 H         5.284872        -1.722015        -0.779011
 H         4.704526        -1.088412         0.824140
 H         3.135453        -1.553764        -2.000767
