19
Iteration:  2233charge 0 multiplicity 1
 C        -0.033174         0.005398         0.112958
 C         1.440715        -0.030495        -0.161380
 C         2.504529         0.665449         0.745453
 C         3.221790         0.334808        -0.635914
 C         1.951863         0.890389        -1.295516
 O         4.653468         0.258814        -0.728718
 C         4.611270        -1.178527        -0.488558
 C         3.055906        -1.132977        -0.926646
 O         1.804387        -1.407165        -0.337345
 H        -0.331157        -1.109983         0.333267
 H        -0.491572         0.662228         0.954396
 H        -0.478779         0.168047        -0.857253
 H         2.439119         1.724929         0.848695
 H         2.995525         0.254751         1.599481
 H         1.933180         2.063227        -1.211050
 H         1.717287         0.604660        -2.335689
 H         5.286191        -1.614442        -1.235404
 H         4.935021        -1.342400         0.575187
 H         3.199012        -1.266554        -2.069753
