19
Iteration:   200charge 0 multiplicity 1
 C        -0.062945        -0.011762         0.417841
 C         1.367005         0.023966        -0.115705
 C         2.508698         0.416373         0.689942
 C         3.218913         0.370647        -0.740665
 C         2.040302         0.957587        -1.417309
 O         4.666935         0.330516        -0.765000
 C         4.588247        -1.132718        -0.333557
 C         3.133715        -1.138369        -1.016545
 O         1.790598        -1.390417        -0.510461
 H        -0.431456        -0.971626         0.786455
 H        -0.167779         0.800501         1.116499
 H        -0.704274         0.164766        -0.410030
 H         2.412646         1.470025         1.021255
 H         2.748772        -0.178085         1.614245
 H         1.866555         2.029074        -1.128722
 H         1.950897         0.709119        -2.470643
 H         5.307820        -1.762592        -0.860828
 H         4.559629        -1.293267         0.747020
 H         3.177139        -1.413350        -2.081560
