19
Iteration:  3240charge 0 multiplicity 1
 C        -0.047752        -0.029349         0.290745
 C         1.336558         0.032560        -0.245244
 C         2.481208         0.622238         0.658711
 C         3.203499         0.392622        -0.766058
 C         1.871560         0.798327        -1.507312
 O         4.734336         0.304481        -0.806225
 C         4.601888        -1.089949        -0.297493
 C         3.133957        -1.126977        -0.803696
 O         1.937878        -1.439116        -0.315154
 H        -0.837109        -0.172864        -0.470586
 H        -0.279615        -0.866232         1.050893
 H        -0.317895         0.917505         0.722782
 H         2.263894         1.734918         0.734109
 H         2.738500        -0.127182         1.399169
 H         1.573564         1.836271        -1.560872
 H         1.523465         0.240632        -2.451486
 H         5.384026        -1.784676        -0.627294
 H         4.672902        -1.037714         0.839508
 H         3.128848        -1.355232        -1.909093
