19
Iteration:  1983
 C        -0.041224        -0.046440         0.339598
 C         1.361639         0.026423        -0.158532
 C         2.500270         0.532723         0.634154
 C         3.243394         0.421002        -0.742884
 C         1.981544         0.880729        -1.433544
 O         4.749346         0.283323        -0.664630
 C         4.477620        -1.140843        -0.366202
 C         3.130320        -1.142859        -1.035932
 O         1.841620        -1.381308        -0.416741
 H        -0.062524        -1.029931         0.921493
 H         0.008500         0.728509         1.103113
 H        -0.869952         0.093607        -0.277780
 H         2.247847         1.604041         0.874985
 H         2.642145        -0.077708         1.604351
 H         1.860744         1.976610        -1.289050
 H         1.738090         0.701659        -2.480514
 H         5.416443        -1.608269        -0.820466
 H         4.206032        -1.422551         0.673720
 H         3.087288        -1.343236        -2.109642
