19
Iteration:  3964
 C        -0.146458         0.026488         0.255506
 C         1.362197         0.010132        -0.171801
 C         2.479409         0.537235         0.644772
 C         3.235852         0.341565        -0.759174
 C         1.811311         0.771468        -1.494029
 O         4.713304         0.352362        -0.766067
 C         4.643013        -1.057443        -0.308899
 C         3.161851        -1.125978        -0.927778
 O         1.927341        -1.400121        -0.267678
 H        -0.829632         0.256396        -0.562956
 H        -0.229011        -0.990956         0.612476
 H        -0.133950         0.872668         0.906649
 H         2.670778         1.549114         0.906008
 H         2.713136        -0.192437         1.423534
 H         1.713794         1.918765        -1.438899
 H         1.499627         0.364984        -2.508968
 H         5.279684        -1.944431        -0.769383
 H         4.741704        -1.036903         0.811991
 H         3.327638        -1.646798        -1.959329
