19
Iteration:  2971charge 0 multiplicity 1
 C        -0.098102        -0.026611         0.316877
 C         1.343800         0.028721        -0.170181
 C         2.545268         0.498487         0.656496
 C         3.266768         0.399631        -0.720929
 C         1.859198         0.870065        -1.433118
 O         4.707308         0.296678        -0.812375
 C         4.628610        -1.078260        -0.253741
 C         3.143830        -1.103651        -0.870102
 O         1.845307        -1.417316        -0.466822
 H        -0.175271        -0.788443         1.048773
 H        -0.539615         1.015990         0.522289
 H        -0.792832        -0.210829        -0.503399
 H         2.631332         1.481339         1.181594
 H         2.710709        -0.279390         1.363370
 H         1.645819         1.975748        -1.433979
 H         1.597974         0.418329        -2.499675
 H         5.268361        -1.764369        -0.802870
 H         4.867903        -1.008379         0.869172
 H         3.242299        -1.544602        -1.844438
