19
Iteration:  4217
 C        -0.035424         0.015280         0.244800
 C         1.359923        -0.030677        -0.185728
 C         2.563543         0.598351         0.646396
 C         3.224624         0.310658        -0.777508
 C         1.892352         0.793745        -1.499692
 O         4.665831         0.393549        -0.814558
 C         4.581812        -1.042812        -0.303982
 C         3.174993        -1.167384        -0.866197
 O         1.849718        -1.462216        -0.256238
 H        -0.666887         0.204842        -0.592167
 H        -0.393534        -0.879012         0.720231
 H        -0.089584         0.793914         0.996488
 H         2.368637         1.600458         0.645047
 H         2.868267         0.128136         1.556514
 H         1.567234         1.815831        -1.309983
 H         1.555399         0.490879        -2.524696
 H         5.385963        -1.646094        -0.620086
 H         4.446214        -1.069030         0.772198
 H         3.139996        -1.644166        -1.866596
