19
Iteration:  3062charge 0 multiplicity 1
 C        -0.162608         0.059457         0.187991
 C         1.351196        -0.044813        -0.137506
 C         2.465297         0.508825         0.744082
 C         3.234922         0.354578        -0.621004
 C         1.946578         0.861157        -1.364547
 O         4.759249         0.341006        -0.859936
 C         4.645529        -1.067813        -0.420169
 C         3.161241        -1.106078        -0.929148
 O         1.833173        -1.469773        -0.361835
 H        -0.228566        -0.021331         1.269665
 H        -0.617979         0.891362        -0.220934
 H        -0.610817        -0.837554        -0.288551
 H         2.294024         1.486633         1.000055
 H         2.840580         0.152684         1.707303
 H         1.766010         1.924311        -1.163509
 H         1.856263         0.410513        -2.310054
 H         5.314126        -1.859643        -0.876979
 H         4.615600        -1.120629         0.662419
 H         3.158200        -1.327033        -2.008368
