19
Iteration:  4045
 C        -0.127842        -0.051966         0.205024
 C         1.356691        -0.012146        -0.193735
 C         2.560340         0.545730         0.604840
 C         3.203924         0.426506        -0.714466
 C         1.921201         0.838805        -1.477382
 O         4.705731         0.342377        -0.798749
 C         4.559294        -1.066127        -0.378478
 C         3.149511        -1.136121        -0.871780
 O         1.902804        -1.435544        -0.203024
 H        -0.730775        -0.482807        -0.631874
 H        -0.270336        -0.588460         1.192788
 H        -0.477565         1.012332         0.434992
 H         2.465863         1.591149         1.025580
 H         2.983987        -0.043591         1.413230
 H         1.720139         1.840666        -1.237551
 H         1.805929         0.554208        -2.525299
 H         5.293065        -1.575754        -0.911938
 H         4.596172        -1.303021         0.735866
 H         2.972028        -1.624655        -1.812703
