19
Iteration:   719charge 0 multiplicity 1
 C        -0.012118        -0.033999         0.281104
 C         1.390491         0.025338        -0.107039
 C         2.522338         0.546786         0.728598
 C         3.310740         0.381406        -0.665846
 C         1.940262         0.854867        -1.341551
 O         4.697056         0.326439        -0.742291
 C         4.558930        -1.130107        -0.457263
 C         3.075268        -1.108129        -0.892956
 O         1.767941        -1.402015        -0.548617
 H        -0.211088        -0.603072         1.225045
 H        -0.534388         0.926450         0.423257
 H        -0.596761        -0.475473        -0.523461
 H         2.509655         1.606741         1.015296
 H         2.801574        -0.262107         1.459979
 H         1.848519         1.948882        -1.082059
 H         1.739010         0.662365        -2.363888
 H         5.197151        -1.948776        -0.926750
 H         4.767498        -1.287383         0.595975
 H         3.175917        -1.365284        -1.971924
