19
Iteration:    53charge 0 multiplicity 1
 C         0.038422        -0.083454         0.351943
 C         1.390478        -0.059570        -0.201816
 C         2.531830         0.526837         0.710302
 C         3.212441         0.419045        -0.693610
 C         1.980661         0.967917        -1.407383
 O         4.712761         0.299940        -0.688695
 C         4.420014        -1.159004        -0.433100
 C         3.098543        -1.081783        -0.994572
 O         1.856868        -1.398675        -0.450867
 H         0.267003         0.175189         1.340046
 H        -0.630819         0.821511         0.046751
 H        -0.711796        -0.912264         0.128055
 H         2.310578         1.614900         0.959273
 H         2.795702        -0.125141         1.597444
 H         1.679008         2.006112        -1.174430
 H         1.945107         0.622055        -2.405108
 H         5.053388        -1.746017        -1.086420
 H         4.611553        -1.465049         0.657368
 H         3.069251        -1.347763        -2.072377
