19
Iteration:   757charge 0 multiplicity 1
 C        -0.155292         0.135272         0.215184
 C         1.336972         0.068716        -0.142627
 C         2.499950         0.408433         0.751909
 C         3.213749         0.289329        -0.701711
 C         1.959332         0.885001        -1.256014
 O         4.688565         0.355909        -0.815996
 C         4.606391        -1.109093        -0.469468
 C         3.156975        -1.166448        -0.954152
 O         1.934387        -1.497852        -0.393463
 H        -0.671953        -0.719557         0.695627
 H        -0.191502         1.084834         0.825019
 H        -0.582981         0.270662        -0.843378
 H         2.430628         1.508934         1.039569
 H         2.615759        -0.301783         1.557333
 H         1.726317         1.845571        -0.826926
 H         1.615946         0.780687        -2.340428
 H         5.447120        -1.532980        -0.949677
 H         4.639125        -1.087182         0.681046
 H         3.161289        -1.296050        -2.065032
