19
Iteration:  1783charge 0 multiplicity 1
 C        -0.096758         0.030970         0.247324
 C         1.382450        -0.053136        -0.158057
 C         2.577261         0.483151         0.721158
 C         3.270090         0.348192        -0.630901
 C         1.934673         0.907272        -1.280033
 O         4.700485         0.313518        -0.811981
 C         4.631291        -1.082196        -0.375650
 C         3.121657        -1.109818        -0.944660
 O         1.778793        -1.385233        -0.504814
 H        -0.403070        -0.886620         0.679710
 H        -0.315415         0.829001         0.903423
 H        -0.764279         0.111619        -0.659391
 H         2.398351         1.521811         0.991375
 H         2.849520        -0.140352         1.575780
 H         1.667483         1.957205        -1.393204
 H         1.648489         0.384738        -2.192275
 H         5.238569        -1.844688        -0.834920
 H         4.774234        -1.173127         0.729785
 H         2.962387        -1.478797        -1.944646
