19
Iteration:  3357charge 0 multiplicity 1
 C        -0.094275        -0.000156         0.095779
 C         1.363378        -0.082584        -0.205937
 C         2.506210         0.747139         0.679911
 C         3.217375         0.288345        -0.731967
 C         1.973217         0.749427        -1.291200
 O         4.672202         0.356614        -0.870996
 C         4.644236        -1.051823        -0.421339
 C         3.136134        -1.155948        -0.846776
 O         1.859369        -1.433209        -0.142003
 H        -0.582888         0.331337        -0.940503
 H        -0.429379        -1.084414         0.365020
 H        -0.367501         0.730463         0.852512
 H         2.162044         1.758428         0.430322
 H         2.710014         0.273670         1.633285
 H         1.676367         1.817175        -1.097329
 H         1.579495         0.431013        -2.329167
 H         5.312684        -1.746538        -1.033565
 H         4.852969        -1.322474         0.613985
 H         3.198854        -1.472486        -1.877885
