19
Iteration:  3096charge 0 multiplicity 1
 C         0.010784        -0.017956         0.327617
 C         1.361609        -0.008891        -0.233342
 C         2.557295         0.505600         0.652710
 C         3.241584         0.334511        -0.766152
 C         1.888559         0.853221        -1.423158
 O         4.697776         0.368056        -0.749337
 C         4.555394        -1.047358        -0.246856
 C         3.186258        -1.149782        -0.907765
 O         1.755618        -1.419995        -0.454724
 H        -0.111143        -0.660458         1.232572
 H        -0.299192         0.932510         0.578562
 H        -0.716011        -0.466070        -0.355900
 H         2.306742         1.523797         0.738829
 H         2.968128        -0.064901         1.503454
 H         1.666485         1.913779        -1.312153
 H         1.652151         0.691958        -2.420501
 H         5.350662        -1.755592        -0.652960
 H         4.604039        -1.031408         0.821565
 H         3.273860        -1.460267        -1.968541
