19
Iteration:  1345charge 0 multiplicity 1
 C        -0.060300        -0.080344         0.327630
 C         1.352047         0.045243        -0.181500
 C         2.533063         0.587509         0.697237
 C         3.285101         0.335100        -0.623266
 C         1.930311         0.902854        -1.396561
 O         4.751255         0.273600        -0.712297
 C         4.537243        -1.161442        -0.402338
 C         3.095672        -1.076102        -1.050863
 O         1.809270        -1.356303        -0.454570
 H        -0.070386        -0.933650         1.026569
 H        -0.444094         0.907820         0.863095
 H        -0.720084        -0.425758        -0.614927
 H         2.548268         1.719857         1.001216
 H         2.861369         0.026933         1.671389
 H         1.673929         1.957599        -1.206741
 H         1.813151         0.472217        -2.388296
 H         5.352725        -1.771480        -0.846177
 H         4.289989        -1.457347         0.614175
 H         3.219701        -1.379180        -2.155963
