19
Iteration:  2314charge 0 multiplicity 1
 C        -0.088920         0.108959         0.342465
 C         1.378663        -0.010229        -0.106031
 C         2.552207         0.475744         0.652607
 C         3.230732         0.326166        -0.694117
 C         1.967485         0.872396        -1.399389
 O         4.669141         0.316165        -0.684686
 C         4.600972        -1.101147        -0.325892
 C         3.134343        -1.147861        -0.985911
 O         1.800960        -1.426252        -0.561266
 H        -0.170773         0.100532         1.408162
 H        -0.650548         0.955268        -0.084777
 H        -0.733851        -0.772577         0.000225
 H         2.556289         1.559774         0.942719
 H         2.814417        -0.184926         1.505717
 H         1.644857         1.885700        -1.346970
 H         1.960397         0.486262        -2.437456
 H         5.502160        -1.522112        -0.838034
 H         4.642694        -1.353532         0.752099
 H         3.174711        -1.259653        -2.033177
