19
Iteration:  1389charge 0 multiplicity 1
 C        -0.079473         0.064538         0.207336
 C         1.348094        -0.071415        -0.134621
 C         2.594716         0.487436         0.733593
 C         3.210813         0.417443        -0.657243
 C         1.989587         0.853846        -1.361370
 O         4.709280         0.373138        -0.743930
 C         4.629443        -1.126149        -0.480702
 C         3.099515        -1.187731        -0.959323
 O         1.746509        -1.436893        -0.376106
 H        -0.438083        -0.921769         0.576077
 H        -0.239373         0.925387         0.946813
 H        -0.830649         0.298045        -0.661543
 H         2.490676         1.618289         1.037164
 H         2.855015        -0.052550         1.706253
 H         1.647295         1.862209        -1.108671
 H         1.972768         0.555565        -2.384886
 H         5.335181        -1.735261        -1.087122
 H         4.885653        -1.171752         0.563216
 H         3.083924        -1.193353        -2.096187
