19
Iteration:  4422charge 0 multiplicity 1
 C        -0.088445         0.026073         0.422347
 C         1.309717         0.017341        -0.219780
 C         2.558178         0.631007         0.596118
 C         3.186883         0.338772        -0.736409
 C         1.956512         0.769397        -1.571601
 O         4.699668         0.308206        -0.764966
 C         4.536728        -1.050484        -0.251272
 C         3.156382        -1.120696        -0.919936
 O         1.897454        -1.492291        -0.398302
 H        -0.812867         0.126975        -0.380171
 H        -0.306428        -0.901008         0.930691
 H        -0.123314         0.796217         1.170754
 H         2.308812         1.639339         0.802071
 H         2.929182         0.103891         1.462387
 H         1.702021         1.734494        -1.298819
 H         1.784300         0.558127        -2.606122
 H         5.334477        -1.732682        -0.466445
 H         4.540720        -1.001993         0.865816
 H         3.268122        -1.295257        -1.966729
