19
Iteration:  3601
 C         0.009943         0.034887         0.381150
 C         1.355719        -0.115012        -0.212938
 C         2.603144         0.597854         0.623379
 C         3.165478         0.368993        -0.721549
 C         1.969956         0.755493        -1.480263
 O         4.651124         0.325043        -0.756782
 C         4.505076        -1.013730        -0.245816
 C         3.147252        -1.110405        -0.994457
 O         1.839414        -1.440598        -0.391426
 H        -0.725885        -0.141548        -0.426010
 H        -0.174890        -0.693677         1.201968
 H        -0.117753         1.139779         0.730997
 H         2.161140         1.555685         0.683942
 H         3.107314         0.096494         1.455128
 H         1.455992         1.790986        -1.557445
 H         1.954146         0.252108        -2.440101
 H         5.311558        -1.616049        -0.549480
 H         4.466735        -0.923298         0.835679
 H         3.202985        -1.408080        -2.018259
