19
Iteration:  2684
 C        -0.091120         0.132391         0.137166
 C         1.334018        -0.099417        -0.145401
 C         2.529746         0.559772         0.689780
 C         3.153210         0.357033        -0.584938
 C         1.928665         0.799966        -1.365815
 O         4.629476         0.347710        -0.825693
 C         4.684718        -1.087614        -0.400705
 C         3.232383        -1.157688        -0.871961
 O         1.829621        -1.497486        -0.350370
 H        -0.580378        -0.700996         0.732740
 H        -0.262084         1.008672         0.723497
 H        -0.751052         0.348442        -0.771302
 H         2.491886         1.635451         0.648456
 H         2.885620         0.254229         1.683213
 H         1.532951         1.876928        -1.117886
 H         1.872348         0.504369        -2.448406
 H         5.495971        -1.484633        -1.145371
 H         4.956318        -1.183724         0.675177
 H         3.319456        -1.500604        -1.915855
