19
Iteration:    11charge 0 multiplicity 1
 C        -0.111195        -0.073853         0.307626
 C         1.300469         0.071940        -0.186732
 C         2.518657         0.543026         0.759391
 C         3.245140         0.293728        -0.699458
 C         1.910207         0.922041        -1.310821
 O         4.754329         0.293573        -0.731120
 C         4.595291        -1.128097        -0.459505
 C         3.145987        -1.138893        -0.971299
 O         1.866572        -1.334824        -0.471909
 H        -0.167360        -0.493145         1.299487
 H        -0.552432         0.986156         0.360612
 H        -0.792632        -0.593616        -0.489640
 H         2.530939         1.660084         0.830164
 H         2.986215         0.069428         1.656884
 H         1.797742         2.010442        -1.324289
 H         1.556002         0.391451        -2.148390
 H         5.107380        -1.786085        -1.137255
 H         4.735965        -1.408589         0.619725
 H         3.181601        -1.627264        -1.949507
