19
Iteration:  1120
 C        -0.160271         0.063295         0.220213
 C         1.412961         0.023358        -0.131624
 C         2.526820         0.447911         0.794313
 C         3.239509         0.354587        -0.642905
 C         2.005547         0.894892        -1.318871
 O         4.666052         0.319489        -0.716026
 C         4.576714        -1.175753        -0.467603
 C         3.124164        -1.093655        -1.004407
 O         1.863922        -1.416941        -0.446649
 H        -0.325209        -0.412140         1.244960
 H        -0.504078         1.111317         0.151101
 H        -0.877882        -0.390738        -0.600257
 H         2.448068         1.465899         1.124799
 H         2.842436        -0.254522         1.486632
 H         1.894222         2.036703        -1.282138
 H         1.733246         0.664732        -2.381599
 H         5.160792        -1.737075        -1.225362
 H         4.878397        -1.362505         0.574481
 H         3.136220        -1.315543        -2.133526
