19
Iteration:  3913
 C        -0.088850        -0.061269         0.404961
 C         1.388303        -0.016425        -0.249035
 C         2.463294         0.587942         0.584834
 C         3.232354         0.370129        -0.758293
 C         1.967726         0.864435        -1.485888
 O         4.681199         0.304321        -0.803180
 C         4.569702        -1.079882        -0.230034
 C         3.152135        -1.140888        -0.900541
 O         1.874092        -1.373847        -0.388002
 H        -0.625649        -0.821683        -0.154475
 H         0.239274        -0.492804         1.428838
 H        -0.555338         0.991711         0.485753
 H         2.254236         1.643211         0.906035
 H         2.719242        -0.146527         1.430473
 H         1.610053         1.906321        -1.631111
 H         1.831347         0.492075        -2.480014
 H         5.298284        -1.809212        -0.494514
 H         4.357364        -1.122492         0.838313
 H         3.341464        -1.389863        -1.927305
