19
Iteration:  3344
 C        -0.113423         0.002101         0.035115
 C         1.371019        -0.010643        -0.060849
 C         2.536362         0.691622         0.641183
 C         3.232273         0.296340        -0.673973
 C         1.854907         0.757791        -1.368222
 O         4.610750         0.373534        -0.870193
 C         4.699233        -1.094642        -0.374342
 C         3.154685        -1.222124        -0.850668
 O         1.886160        -1.434832        -0.210063
 H        -0.671369         0.463021        -0.836740
 H        -0.609846        -0.895916         0.260060
 H        -0.291425         0.630257         0.927608
 H         2.582201         1.741110         0.796136
 H         2.922251         0.428473         1.636696
 H         1.753210         1.874730        -1.326014
 H         1.652703         0.343861        -2.338505
 H         5.490786        -1.565063        -1.040122
 H         4.958661        -1.031412         0.647065
 H         3.009338        -1.634451        -1.873339
