19
Iteration:  2926
 C        -0.061851         0.063339         0.332591
 C         1.348772        -0.022332        -0.181988
 C         2.491463         0.525581         0.636043
 C         3.177730         0.376249        -0.745141
 C         1.946271         0.855114        -1.461358
 O         4.681050         0.328256        -0.776416
 C         4.599327        -1.087519        -0.290215
 C         3.172953        -1.133020        -0.868203
 O         1.885160        -1.486326        -0.433142
 H        -0.337848        -0.961107         0.628073
 H        -0.217392         0.837875         1.123653
 H        -0.770561         0.471604        -0.351354
 H         2.212433         1.556262         0.970861
 H         2.957511        -0.083507         1.380372
 H         1.537077         1.869654        -1.251570
 H         1.783570         0.687238        -2.588426
 H         5.319635        -1.753363        -0.787682
 H         4.631590        -1.253038         0.816783
 H         3.300108        -1.351355        -1.911047
