19
Iteration:  4098charge 0 multiplicity 1
 C        -0.121302        -0.018711         0.423863
 C         1.318551         0.019206        -0.214881
 C         2.513213         0.501579         0.605869
 C         3.159965         0.439649        -0.764298
 C         1.872772         0.741847        -1.487412
 O         4.812194         0.295144        -0.810859
 C         4.644818        -1.086490        -0.192112
 C         3.196243        -1.018113        -0.868753
 O         1.825306        -1.408282        -0.487361
 H        -0.684146        -0.850440         0.118942
 H        -0.163474         0.168834         1.466879
 H        -0.696918         0.862385         0.176207
 H         2.436887         1.551175         0.942772
 H         2.860682        -0.126029         1.413457
 H         1.534196         1.735927        -1.591501
 H         1.744890         0.268199        -2.432682
 H         5.366929        -1.698143        -0.676438
 H         4.827452        -1.223484         0.983878
 H         3.135270        -1.399902        -1.924320
