19
Iteration:  3430charge 0 multiplicity 1
 C        -0.098642         0.037213         0.353582
 C         1.390826        -0.106363        -0.124148
 C         2.547493         0.576619         0.593022
 C         3.190045         0.382515        -0.804765
 C         1.876742         0.869002        -1.496011
 O         4.628731         0.293936        -0.780676
 C         4.565015        -1.046855        -0.220552
 C         3.252230        -1.166333        -0.874470
 O         1.868448        -1.453947        -0.470946
 H        -0.687042        -0.876528         0.146551
 H        -0.044451         0.090064         1.396344
 H        -0.515974         1.007998         0.061625
 H         2.302356         1.649803         0.743729
 H         3.020629         0.145838         1.506926
 H         1.699792         1.918860        -1.189581
 H         1.536785         0.685108        -2.465770
 H         5.497966        -1.651737        -0.492690
 H         4.688562        -1.005867         0.869860
 H         3.428838        -1.535722        -1.938385
