19
Iteration:  1374
 C        -0.121274         0.023266         0.262109
 C         1.370039        -0.041101        -0.219688
 C         2.517167         0.541240         0.630250
 C         3.275484         0.336608        -0.671042
 C         1.915589         0.951610        -1.351908
 O         4.708594         0.277723        -0.709351
 C         4.588259        -1.131719        -0.448757
 C         3.122873        -1.042315        -0.916559
 O         1.863634        -1.449102        -0.372473
 H        -0.446014        -0.828766         0.807126
 H        -0.180415         0.776642         1.070208
 H        -0.611195         0.184180        -0.586595
 H         2.350559         1.520108         0.974480
 H         2.952932        -0.115565         1.365202
 H         1.663024         1.963912        -1.098365
 H         1.625828         0.777087        -2.404610
 H         5.218320        -1.651479        -1.161534
 H         4.677140        -1.588078         0.558405
 H         3.148194        -1.523587        -1.885876
