19
Iteration:  3252
 C        -0.042813        -0.069278         0.320226
 C         1.334133         0.042602        -0.208142
 C         2.457045         0.596548         0.514085
 C         3.251009         0.370767        -0.768035
 C         1.820072         0.709685        -1.503096
 O         4.763679         0.281044        -0.749345
 C         4.594537        -1.046208        -0.239591
 C         3.177432        -1.072575        -0.950007
 O         1.841988        -1.337006        -0.284489
 H        -0.778902         0.021292        -0.416702
 H        -0.009461        -1.021609         0.977667
 H        -0.089729         0.721401         1.057838
 H         2.429789         1.582252         1.050697
 H         2.740605         0.059516         1.419497
 H         1.592918         1.755018        -1.526639
 H         1.715133         0.212021        -2.522877
 H         5.285408        -1.712372        -0.701833
 H         4.587752        -1.086644         0.905697
 H         3.308310        -1.584802        -1.949065
