19
Iteration:  2147charge 0 multiplicity 1
 C        -0.104221        -0.029434         0.293168
 C         1.409586        -0.033056        -0.197057
 C         2.551359         0.506257         0.719824
 C         3.308469         0.336274        -0.740387
 C         1.906566         0.935927        -1.324829
 O         4.741510         0.281821        -0.742576
 C         4.560290        -1.096791        -0.313799
 C         3.151720        -1.132117        -0.993388
 O         1.763471        -1.371717        -0.507496
 H        -0.213881        -0.541331         1.278761
 H        -0.524227         1.060775         0.332062
 H        -0.787834        -0.473480        -0.394170
 H         2.710567         1.557292         0.849463
 H         2.913084        -0.102179         1.524990
 H         1.551291         2.002647        -1.079519
 H         1.667099         0.659904        -2.345705
 H         5.351067        -1.834256        -0.505095
 H         4.355377        -0.933792         0.761619
 H         3.065388        -1.380798        -2.009489
