19
Iteration:   633charge 0 multiplicity 1
 C        -0.251475         0.102746         0.231634
 C         1.315698         0.000297        -0.144870
 C         2.489680         0.429712         0.828398
 C         3.274957         0.361826        -0.687117
 C         1.923866         0.900741        -1.250759
 O         4.760769         0.324906        -0.863523
 C         4.701969        -1.137840        -0.445712
 C         3.197111        -1.108328        -0.935103
 O         1.812862        -1.466704        -0.478120
 H        -0.244914        -0.409896         1.317794
 H        -0.453101         1.255814         0.338071
 H        -0.924954        -0.293945        -0.574130
 H         2.421858         1.503878         1.013903
 H         3.030199         0.050558         1.700456
 H         1.734323         2.021744        -1.052438
 H         1.728175         0.686976        -2.295094
 H         5.340024        -1.815114        -1.142292
 H         4.798388        -1.314451         0.713417
 H         3.140708        -1.586862        -1.975660
