19
Iteration:  1640charge 0 multiplicity 1
 C        -0.036728         0.011455         0.316278
 C         1.314087        -0.058245        -0.177703
 C         2.505599         0.527997         0.715647
 C         3.284846         0.325156        -0.668608
 C         1.936364         0.909417        -1.255919
 O         4.720149         0.327601        -0.711839
 C         4.652083        -1.153302        -0.414048
 C         3.114903        -1.113010        -1.061315
 O         1.779549        -1.385557        -0.523795
 H        -0.294369        -0.600069         1.103501
 H        -0.436260         1.050252         0.800320
 H        -0.815975        -0.197393        -0.461843
 H         2.298915         1.605223         0.662237
 H         2.882554        -0.007463         1.617640
 H         1.772448         1.999265        -1.283493
 H         1.564765         0.587184        -2.220460
 H         5.489454        -1.743985        -0.783715
 H         4.560789        -1.269817         0.716671
 H         3.299819        -1.467466        -2.095789
