19
Iteration:   709
 C        -0.090277        -0.064138         0.302116
 C         1.343905         0.067430        -0.167313
 C         2.494847         0.632000         0.749621
 C         3.239986         0.320857        -0.642737
 C         1.943206         0.901002        -1.293827
 O         4.713099         0.259827        -0.753508
 C         4.617065        -1.211519        -0.397512
 C         3.152554        -1.100851        -1.029009
 O         1.812639        -1.358493        -0.540665
 H         0.074057        -0.577698         1.340107
 H        -0.502722         0.984952         0.445963
 H        -0.576780        -0.838505        -0.261976
 H         2.406426         1.672082         1.061650
 H         2.749321         0.006456         1.654696
 H         1.785485         2.012900        -1.202688
 H         1.655385         0.566497        -2.279305
 H         5.333811        -1.682868        -1.149092
 H         4.659312        -1.343493         0.708936
 H         3.157036        -1.334153        -2.132452
