19
Iteration:  1423charge 0 multiplicity 1
 C        -0.187500         0.080093         0.142228
 C         1.339096         0.008217        -0.123009
 C         2.573094         0.439571         0.753985
 C         3.214362         0.306338        -0.646917
 C         1.919409         0.946603        -1.258002
 O         4.683832         0.282388        -0.896683
 C         4.682783        -1.103756        -0.442169
 C         3.146919        -1.100163        -0.893662
 O         1.858531        -1.423900        -0.388078
 H        -0.408684        -0.680765         0.904530
 H        -0.329907         0.932386         0.737225
 H        -0.693136        -0.081939        -0.880973
 H         2.496518         1.491083         1.210381
 H         2.679112        -0.340492         1.551024
 H         1.626221         1.952579        -0.947710
 H         1.790346         0.819528        -2.315627
 H         5.248656        -1.861223        -0.991840
 H         4.917693        -1.121907         0.616233
 H         3.306987        -1.345740        -1.979290
