19
Iteration:  4227charge 0 multiplicity 1
 C        -0.062813        -0.006919         0.296164
 C         1.378903         0.004607        -0.229353
 C         2.508801         0.585471         0.631745
 C         3.282796         0.385786        -0.857547
 C         1.811526         0.761579        -1.473829
 O         4.717171         0.344615        -0.819253
 C         4.567743        -1.070154        -0.198557
 C         3.114899        -1.146288        -0.852566
 O         1.896407        -1.422010        -0.321687
 H        -0.902038         0.196086        -0.388644
 H        -0.239589        -0.979615         0.814040
 H        -0.197450         0.845537         0.985350
 H         2.514210         1.603877         0.996746
 H         2.918459        -0.049981         1.423781
 H         1.572801         1.845633        -1.481981
 H         1.610892         0.278447        -2.482890
 H         5.380836        -1.596036        -0.668224
 H         4.714712        -1.029009         0.866562
 H         3.159012        -1.620588        -1.865087
