19
Iteration:  4111charge 0 multiplicity 1
 C        -0.079180        -0.022666         0.343451
 C         1.328867        -0.049376        -0.173549
 C         2.497258         0.545022         0.630200
 C         3.228207         0.375657        -0.750225
 C         1.833604         0.864182        -1.527099
 O         4.770959         0.296896        -0.792128
 C         4.579985        -1.049316        -0.287797
 C         3.203791        -1.119352        -0.896672
 O         1.835602        -1.373843        -0.368260
 H        -0.515279        -1.000579        -0.010573
 H         0.047270        -0.036315         1.435382
 H        -0.595948         0.848339        -0.114096
 H         2.430572         1.598703         1.118777
 H         2.827109        -0.137874         1.435644
 H         1.617657         1.869115        -1.494336
 H         1.697660         0.335019        -2.472738
 H         5.246383        -1.769464        -0.670583
 H         4.544083        -1.047268         0.893245
 H         3.454801        -1.530758        -1.877525
