19
Iteration:  3675charge 0 multiplicity 1
 C        -0.107414        -0.015508         0.036230
 C         1.446548         0.007676        -0.123359
 C         2.522762         0.663505         0.730227
 C         3.217213         0.340000        -0.612825
 C         1.969415         0.847402        -1.307331
 O         4.605006         0.329710        -0.919161
 C         4.590441        -1.112246        -0.465033
 C         3.105638        -1.175678        -0.867373
 O         1.923398        -1.467250        -0.185323
 H        -0.485581        -0.866791        -0.458841
 H        -0.391372        -0.071493         1.125788
 H        -0.676308         0.814956        -0.474518
 H         2.460513         1.758629         0.857982
 H         2.760252         0.059884         1.640055
 H         1.789061         1.978319        -1.309132
 H         1.789861         0.616493        -2.358400
 H         5.341273        -1.624692        -1.043457
 H         4.677374        -1.223600         0.714056
 H         2.917753        -1.482055        -1.960056
