19
Iteration:   796charge 0 multiplicity 1
 C        -0.087147        -0.026766         0.200946
 C         1.352145        -0.040205        -0.169894
 C         2.565812         0.477055         0.713218
 C         3.294116         0.333493        -0.569533
 C         1.970637         0.851235        -1.353678
 O         4.714353         0.302262        -0.769791
 C         4.622509        -1.063180        -0.496027
 C         3.129871        -1.095700        -0.934639
 O         1.741065        -1.318034        -0.356134
 H        -0.442354        -0.988816         0.656660
 H        -0.504005         0.812054         0.741637
 H        -0.624261         0.122661        -0.659230
 H         2.436983         1.484485         1.165438
 H         2.871883        -0.096450         1.623000
 H         1.699188         1.903627        -1.213240
 H         1.834842         0.676463        -2.409250
 H         5.172134        -1.690777        -1.234737
 H         4.622597        -1.573841         0.415777
 H         3.042951        -1.201982        -2.010542
