19
Iteration:    38charge 0 multiplicity 1
 C        -0.037460        -0.087672         0.406322
 C         1.345657         0.015713        -0.224074
 C         2.560072         0.596324         0.598367
 C         3.283284         0.421875        -0.642620
 C         1.925610         0.920808        -1.396411
 O         4.704129         0.226867        -0.637209
 C         4.647003        -1.209827        -0.450322
 C         3.073484        -1.015754        -0.982802
 O         1.748213        -1.377703        -0.467110
 H        -0.166101        -0.330736         1.491970
 H        -0.669543         0.727971         0.027761
 H        -0.268657        -1.116582         0.085842
 H         2.379418         1.596174         0.978139
 H         3.027895         0.018332         1.405947
 H         1.587394         1.991599        -1.280601
 H         1.689199         0.685995        -2.492645
 H         5.384070        -1.792687        -1.047469
 H         4.661127        -1.465060         0.613096
 H         3.133280        -1.172833        -2.073177
