19
Iteration:  3492
 C        -0.214079        -0.032280         0.132131
 C         1.312704         0.020812        -0.104204
 C         2.537721         0.632939         0.599748
 C         3.278432         0.335697        -0.679095
 C         1.909654         0.860202        -1.354620
 O         4.703763         0.346610        -0.791265
 C         4.650699        -1.142627        -0.474816
 C         3.145923        -1.118283        -0.834983
 O         1.915427        -1.511851        -0.240318
 H        -0.730450        -0.817748        -0.360020
 H        -0.337139        -0.076738         1.268294
 H        -0.857039         0.858834        -0.207065
 H         2.445779         1.698043         0.559830
 H         2.817550         0.363983         1.618620
 H         1.759896         1.964530        -1.129753
 H         1.567353         0.590440        -2.355826
 H         5.267564        -1.574421        -1.214352
 H         5.160881        -1.149213         0.510095
 H         3.119571        -1.473956        -1.845979
