19
Iteration:  1797charge 0 multiplicity 1
 C        -0.054162         0.022214         0.300616
 C         1.349445         0.046536        -0.145126
 C         2.546250         0.391082         0.726661
 C         3.227564         0.415201        -0.719252
 C         1.878862         0.819609        -1.372902
 O         4.765750         0.290648        -0.810731
 C         4.560879        -1.099712        -0.303121
 C         3.167628        -1.088919        -0.963287
 O         1.757994        -1.342949        -0.492922
 H        -0.357323        -0.990015         0.811331
 H        -0.221680         0.799193         1.019272
 H        -0.609218         0.205173        -0.626664
 H         2.629852         1.387615         1.262856
 H         2.826095        -0.430658         1.425881
 H         1.551768         1.807965        -1.199349
 H         1.796967         0.474673        -2.378162
 H         5.425028        -1.656400        -0.720521
 H         4.496807        -1.076615         0.760426
 H         3.530444        -1.328740        -2.045596
