19
Iteration:  3688
 C        -0.141713         0.027980         0.071206
 C         1.291517        -0.054717        -0.134669
 C         2.516291         0.579973         0.672811
 C         3.245367         0.366686        -0.699096
 C         1.910424         0.849753        -1.315215
 O         4.661322         0.247175        -0.906773
 C         4.676176        -1.094295        -0.452626
 C         3.155637        -1.073864        -0.848360
 O         1.923153        -1.434988        -0.168765
 H        -0.579809        -0.831154        -0.523281
 H        -0.511041        -0.004779         1.096434
 H        -0.342142         1.093481        -0.342127
 H         2.288278         1.625340         0.840035
 H         2.866021         0.096812         1.624454
 H         1.563098         1.832883        -0.812250
 H         1.638455         0.516186        -2.325754
 H         5.440772        -1.745785        -0.851714
 H         4.859164        -1.134961         0.702200
 H         3.153221        -1.242829        -1.984294
