19
Iteration:  4758
 C        -0.086043        -0.055616         0.351920
 C         1.332888        -0.040673        -0.191876
 C         2.569701         0.568019         0.567254
 C         3.269846         0.438293        -0.735125
 C         1.838210         0.837835        -1.495526
 O         4.760692         0.302212        -0.685589
 C         4.541458        -1.181263        -0.277060
 C         3.183439        -1.063107        -0.931125
 O         1.856073        -1.371828        -0.415516
 H        -0.590982        -0.998696         0.198070
 H        -0.114645         0.129290         1.434695
 H        -0.694072         0.777345        -0.130611
 H         2.409418         1.652067         0.866420
 H         2.803928         0.135770         1.532020
 H         1.602505         1.919924        -1.559253
 H         1.645641         0.347121        -2.475887
 H         5.198219        -1.880757        -0.808238
 H         4.490595        -1.206922         0.789862
 H         3.162915        -1.378055        -1.950928
