19
Iteration:  4107charge 0 multiplicity 1
 C        -0.077608        -0.017791         0.371987
 C         1.300951        -0.013210        -0.175303
 C         2.497054         0.517820         0.646061
 C         3.191929         0.419934        -0.745963
 C         1.834161         0.818715        -1.530236
 O         4.799904         0.291298        -0.809891
 C         4.599464        -1.055641        -0.241848
 C         3.220336        -1.075971        -0.882446
 O         1.827181        -1.380912        -0.403774
 H        -0.655338        -0.868822         0.150758
 H        -0.057136        -0.100381         1.435990
 H        -0.594166         0.756887        -0.126404
 H         2.456829         1.531807         0.904595
 H         2.888969        -0.244246         1.292000
 H         1.602016         1.934355        -1.584468
 H         1.757304         0.310362        -2.483552
 H         5.288054        -1.780001        -0.744662
 H         4.554015        -1.211080         0.855079
 H         3.500725        -1.591198        -1.849032
