19
Iteration:   887
 C        -0.123258         0.075122         0.289373
 C         1.382417         0.018874        -0.169528
 C         2.489808         0.402361         0.710029
 C         3.287806         0.318769        -0.647073
 C         1.987902         0.891719        -1.260394
 O         4.673893         0.342332        -0.759169
 C         4.649903        -1.095915        -0.425242
 C         3.141056        -1.156590        -1.029813
 O         1.778283        -1.426787        -0.499468
 H        -0.089067         0.086461         1.378002
 H        -0.484570         1.094414        -0.006633
 H        -0.895358        -0.599366        -0.121537
 H         2.506644         1.425856         1.008900
 H         2.621146        -0.233557         1.577295
 H         1.784800         1.932623        -0.938688
 H         1.662356         0.916354        -2.319815
 H         5.515221        -1.529914        -0.888646
 H         4.737594        -1.303776         0.676546
 H         3.187648        -1.470807        -2.100417
