19
Iteration:  3573
 C        -0.069547         0.008073         0.363544
 C         1.322058         0.085086        -0.211657
 C         2.480427         0.528364         0.586827
 C         3.200821         0.279810        -0.791131
 C         1.867814         0.796610        -1.442763
 O         4.722987         0.368214        -0.843070
 C         4.647800        -1.046464        -0.208711
 C         3.228018        -1.173218        -0.845178
 O         1.814933        -1.392327        -0.387622
 H        -0.705263         0.027251        -0.566354
 H        -0.252710        -0.929468         0.841159
 H        -0.246736         0.824069         0.996074
 H         2.274019         1.562133         0.960589
 H         2.758763        -0.204409         1.378162
 H         1.708199         1.836299        -1.438454
 H         1.611387         0.311468        -2.399293
 H         5.401693        -1.762198        -0.739896
 H         5.008035        -0.854975         0.809543
 H         3.275309        -1.734744        -1.824408
