19
Iteration:  2791
 C        -0.106781         0.051299         0.390248
 C         1.323132        -0.034968        -0.227208
 C         2.549566         0.424849         0.613058
 C         3.202969         0.340620        -0.780093
 C         1.952253         0.930863        -1.462021
 O         4.701926         0.404165        -0.630210
 C         4.615927        -1.098544        -0.338185
 C         3.163652        -1.175408        -0.962723
 O         1.843582        -1.414804        -0.443972
 H        -0.086328         0.260922         1.496857
 H        -0.686832         0.859774        -0.019184
 H        -0.535701        -1.002792         0.262360
 H         2.549957         1.518315         0.857514
 H         2.579166        -0.384007         1.438403
 H         1.601560         1.983487        -1.311866
 H         1.773086         0.569315        -2.472835
 H         5.403532        -1.648679        -0.884907
 H         4.699647        -1.195452         0.732666
 H         3.136194        -1.628042        -1.970218
