19
Iteration:  4152
 C        -0.153726        -0.068006         0.126201
 C         1.400275        -0.005216        -0.092884
 C         2.543136         0.666478         0.723844
 C         3.217846         0.375374        -0.703399
 C         1.965518         0.824937        -1.442547
 O         4.669110         0.319692        -0.837467
 C         4.659505        -1.101092        -0.446911
 C         3.106223        -1.161453        -0.836287
 O         1.879543        -1.413212        -0.216812
 H        -0.688740        -0.529961        -0.625014
 H        -0.501871        -0.594628         0.954984
 H        -0.577429         0.902977         0.078931
 H         2.320407         1.674827         0.780097
 H         2.825672         0.103129         1.554634
 H         1.686977         1.864461        -1.390009
 H         1.710505         0.412123        -2.418452
 H         5.300060        -1.725731        -0.997549
 H         4.902461        -1.120190         0.656231
 H         2.952803        -1.438575        -1.912329
