19
Iteration:  4806
 C        -0.156963         0.006880         0.148974
 C         1.331747        -0.068544        -0.167102
 C         2.465204         0.555641         0.642600
 C         3.232684         0.400933        -0.702554
 C         2.053813         0.873442        -1.362001
 O         4.690926         0.332620        -0.856263
 C         4.706457        -1.110501        -0.383204
 C         3.112916        -1.143848        -0.828243
 O         1.840962        -1.440000        -0.244470
 H        -0.667615        -0.720526        -0.538926
 H        -0.501123        -0.288426         1.170528
 H        -0.573261         0.991899        -0.081826
 H         2.236396         1.686023         0.916733
 H         3.008881         0.131966         1.559408
 H         1.644683         1.847541        -1.067002
 H         1.937725         0.773438        -2.456963
 H         5.176160        -1.761188        -1.142869
 H         4.864918        -1.208192         0.740992
 H         2.985830        -1.481280        -1.924888
