19
Iteration:  4199
 C        -0.106613         0.061021         0.185897
 C         1.344616        -0.082046        -0.086196
 C         2.466335         0.679766         0.631514
 C         3.247210         0.303326        -0.735415
 C         2.002037         0.765987        -1.379055
 O         4.588135         0.330507        -0.848955
 C         4.675243        -1.019423        -0.360702
 C         3.143829        -1.172590        -0.887795
 O         1.884846        -1.483722        -0.236792
 H        -0.738591         0.213952        -0.714912
 H        -0.547713        -0.876393         0.536653
 H        -0.445499         0.899639         0.796296
 H         2.324257         1.828006         0.648959
 H         2.971789         0.153684         1.456843
 H         1.782489         1.807856        -1.385319
 H         1.981959         0.423059        -2.412574
 H         5.437071        -1.462037        -1.031790
 H         4.998643        -1.071706         0.742514
 H         2.963874        -1.479877        -1.935046
