19
Iteration:  1727
 C        -0.123101        -0.013497         0.165572
 C         1.391301        -0.033246        -0.140796
 C         2.530457         0.530058         0.773196
 C         3.250568         0.454122        -0.599013
 C         1.945846         0.852800        -1.345773
 O         4.732734         0.304985        -0.695154
 C         4.606926        -1.193400        -0.606479
 C         3.121542        -1.035361        -0.950155
 O         1.809558        -1.376716        -0.342348
 H        -0.331327        -0.358360         1.101721
 H        -0.635165         0.965086        -0.006853
 H        -0.429862        -0.736440        -0.595222
 H         2.617712         1.480016         1.251343
 H         2.782864        -0.281991         1.449522
 H         1.653278         1.911968        -1.090401
 H         1.854339         0.450895        -2.381607
 H         5.028496        -1.854558        -1.342408
 H         4.707213        -1.552825         0.454815
 H         2.965839        -1.184123        -2.050738
