19
Iteration:  3227
 C        -0.155627         0.038151         0.231576
 C         1.370145        -0.068874        -0.166676
 C         2.509456         0.655486         0.627628
 C         3.232793         0.365314        -0.678060
 C         1.944928         0.804704        -1.456317
 O         4.638745         0.345287        -0.884615
 C         4.610804        -1.092010        -0.286263
 C         3.220297        -1.119153        -0.871686
 O         1.859812        -1.502089        -0.292138
 H        -0.710163        -0.518073        -0.611514
 H        -0.133005        -0.622555         1.122568
 H        -0.535863         1.018467         0.511398
 H         2.361086         1.727791         0.886059
 H         2.845597         0.361121         1.630813
 H         1.636760         1.865436        -1.263462
 H         1.918578         0.469888        -2.523036
 H         5.334389        -1.703993        -0.915456
 H         4.747924        -1.142902         0.799137
 H         3.332014        -1.528981        -1.871063
