19
Iteration:  1781charge 0 multiplicity 1
 C        -0.113356         0.026405         0.222991
 C         1.389722        -0.049845        -0.138230
 C         2.572460         0.489702         0.723999
 C         3.270652         0.358724        -0.631654
 C         1.938226         0.905795        -1.283056
 O         4.691928         0.320008        -0.815602
 C         4.641481        -1.090339        -0.371963
 C         3.109957        -1.136453        -0.944261
 O         1.783327        -1.395302        -0.500471
 H        -0.362449        -0.838075         0.744500
 H        -0.290567         0.849608         0.991584
 H        -0.758735         0.096680        -0.672269
 H         2.387105         1.511490         0.958368
 H         2.875154        -0.068130         1.602950
 H         1.714354         2.035166        -1.342924
 H         1.669394         0.428521        -2.277572
 H         5.239067        -1.820784        -0.913820
 H         4.780820        -1.242131         0.748738
 H         3.003297        -1.371082        -1.979227
