19
Iteration:  3813charge 0 multiplicity 1
 C        -0.180243        -0.010649         0.164123
 C         1.354569        -0.019824        -0.158702
 C         2.565228         0.639887         0.640988
 C         3.217737         0.324764        -0.691869
 C         2.005525         0.855732        -1.416907
 O         4.639996         0.340764        -0.846012
 C         4.639773        -1.061716        -0.412629
 C         3.141921        -1.213204        -0.846824
 O         1.832754        -1.441400        -0.217544
 H        -0.648060        -0.619311        -0.667873
 H        -0.335700        -0.467639         1.196385
 H        -0.386780         1.025210         0.369637
 H         2.512180         1.736900         0.780952
 H         2.918200         0.070669         1.547631
 H         1.747441         1.907686        -1.233024
 H         1.837066         0.579544        -2.459787
 H         5.428924        -1.672281        -0.905157
 H         4.813393        -1.054391         0.624831
 H         3.180718        -1.653929        -1.830956
