19
Iteration:  3455charge 0 multiplicity 1
 C        -0.074602         0.023459         0.321190
 C         1.359094         0.019668        -0.262013
 C         2.500745         0.425134         0.672712
 C         3.297182         0.396854        -0.712578
 C         1.922884         0.752720        -1.465451
 O         4.738724         0.385922        -0.822633
 C         4.583379        -1.012473        -0.308439
 C         3.183675        -1.103841        -0.940114
 O         1.759596        -1.440176        -0.327845
 H        -0.489343        -1.038342         0.262459
 H         0.013562         0.199021         1.455434
 H        -0.671478         0.855869         0.003651
 H         2.383129         1.508723         0.956168
 H         2.596024        -0.190288         1.580482
 H         1.608819         1.767588        -1.613341
 H         1.646539         0.150837        -2.400779
 H         5.402293        -1.749331        -0.507609
 H         4.633108        -0.957403         0.776907
 H         3.207005        -1.269978        -2.034240
