19
Iteration:   160
 C        -0.010478        -0.056978         0.253418
 C         1.394513        -0.046259        -0.070921
 C         2.446757         0.594339         0.723633
 C         3.202233         0.414597        -0.698840
 C         1.889466         0.968618        -1.398487
 O         4.768659         0.181382        -0.703354
 C         4.597723        -1.231774        -0.499689
 C         3.119434        -1.008853        -0.996246
 O         1.830137        -1.348962        -0.358152
 H        -0.268332        -1.106058         0.454357
 H        -0.347145         0.655279         1.145912
 H        -0.611783         0.238888        -0.731449
 H         2.373676         1.709726         0.751236
 H         2.890374        -0.021919         1.553308
 H         1.480473         2.058628        -1.140809
 H         1.663127         0.535753        -2.399960
 H         5.218103        -1.799389        -1.191262
 H         4.813783        -1.459332         0.609631
 H         3.103841        -1.310957        -2.074212
