19
Iteration:   362charge 0 multiplicity 1
 C        -0.163502         0.111737         0.319003
 C         1.323558        -0.017920        -0.188550
 C         2.465112         0.378596         0.741681
 C         3.294675         0.296739        -0.719152
 C         2.039554         0.922442        -1.282071
 O         4.753981         0.360056        -0.863155
 C         4.584001        -1.062820        -0.285195
 C         3.168152        -1.137222        -1.004940
 O         1.755746        -1.422569        -0.527854
 H        -0.309420        -0.943499         0.816855
 H        -0.103323         0.934416         1.098060
 H        -1.028686         0.013083        -0.325573
 H         2.635900         1.479146         1.004977
 H         2.922310        -0.302142         1.535802
 H         1.959788         2.009482        -0.851842
 H         1.662992         0.738619        -2.355950
 H         5.300611        -1.772257        -0.761885
 H         4.609166        -1.012747         0.831384
 H         3.223836        -1.617512        -1.977182
