19
Iteration:  4894charge 0 multiplicity 1
 C        -0.066599        -0.098050         0.358060
 C         1.290004         0.041979        -0.290120
 C         2.491047         0.676897         0.685909
 C         3.245102         0.319065        -0.729442
 C         2.009782         0.769389        -1.521422
 O         4.748585         0.290360        -0.774760
 C         4.500621        -1.075874        -0.263566
 C         3.175133        -1.106001        -0.909918
 O         1.844575        -1.362270        -0.368788
 H        -0.835574         0.154235        -0.423356
 H        -0.264125        -1.075526         0.818701
 H        -0.058937         0.616369         1.102824
 H         2.294634         1.751016         0.803487
 H         2.719711        -0.058368         1.566586
 H         1.893695         1.819339        -1.530885
 H         1.701175         0.423600        -2.509938
 H         5.240791        -1.744001        -0.654314
 H         4.297055        -1.163576         0.840378
 H         3.352350        -1.474592        -1.932661
