19
Iteration:  3982charge 0 multiplicity 1
 C        -0.149008        -0.004642         0.153536
 C         1.323641        -0.014700        -0.181562
 C         2.539533         0.539388         0.644304
 C         3.224615         0.402385        -0.726264
 C         1.997803         0.804180        -1.423962
 O         4.686470         0.358396        -0.859403
 C         4.611476        -1.068846        -0.402760
 C         3.122652        -1.154688        -0.844839
 O         1.891587        -1.435319        -0.137770
 H        -0.724457         0.240467        -0.781480
 H        -0.509783        -0.974198         0.486859
 H        -0.429235         0.676074         0.981763
 H         2.311003         1.603530         0.952985
 H         2.870896        -0.080618         1.454223
 H         1.630253         1.786713        -1.375976
 H         1.799335         0.600077        -2.505903
 H         5.441430        -1.485892        -0.911361
 H         4.723976        -1.215633         0.644667
 H         3.161742        -1.532531        -1.865119
