19
Iteration:  4630
 C        -0.190498        -0.061439         0.187472
 C         1.288390        -0.012853        -0.126965
 C         2.568566         0.569011         0.705411
 C         3.231079         0.418410        -0.757391
 C         1.971383         0.784873        -1.494009
 O         4.746668         0.318706        -0.804177
 C         4.642436        -1.105951        -0.423923
 C         3.192082        -1.130176        -0.794342
 O         1.784101        -1.320350        -0.255147
 H        -0.749439         0.074464        -0.705009
 H        -0.425617        -1.048206         0.515945
 H        -0.552063         0.671442         0.941635
 H         2.410546         1.645669         1.057564
 H         2.800187        -0.117623         1.538430
 H         1.542790         1.757369        -1.362828
 H         1.919784         0.391231        -2.473599
 H         5.285441        -1.723941        -0.987024
 H         5.138528        -1.251815         0.480476
 H         3.265670        -1.484585        -1.865481
