19
Iteration:  4440
 C        -0.042516         0.023065         0.330206
 C         1.344473         0.026876        -0.248019
 C         2.436674         0.466684         0.605251
 C         3.246844         0.382385        -0.773374
 C         1.917935         0.827314        -1.473463
 O         4.695961         0.337041        -0.831280
 C         4.610638        -1.056406        -0.239777
 C         3.176543        -1.158124        -0.883351
 O         1.844880        -1.375166        -0.308887
 H        -0.971479         0.176820        -0.262501
 H        -0.077726        -0.945356         0.875269
 H        -0.145107         0.867010         1.006253
 H         2.450291         1.528961         0.982136
 H         2.494044        -0.303236         1.468724
 H         1.706307         1.894450        -1.787192
 H         1.808045         0.177574        -2.359890
 H         5.441515        -1.676940        -0.713123
 H         4.722863        -1.098023         0.867755
 H         3.200272        -1.722997        -1.906953
