19
Iteration:  4372
 C        -0.196410        -0.066988         0.230586
 C         1.249690         0.031731        -0.217308
 C         2.586993         0.601043         0.649674
 C         3.293434         0.392050        -0.741171
 C         1.950243         0.846229        -1.460781
 O         4.701858         0.311829        -0.844901
 C         4.590186        -1.143229        -0.331245
 C         3.163270        -1.071044        -0.867845
 O         1.887452        -1.398445        -0.229165
 H        -0.850134        -0.583618        -0.528029
 H        -0.177291        -0.668703         1.175874
 H        -0.686668         0.983897         0.454160
 H         2.686188         1.613982         1.189104
 H         2.938869        -0.170145         1.367423
 H         1.416475         1.873072        -1.496610
 H         1.853035         0.239003        -2.428744
 H         5.401624        -1.715708        -0.809869
 H         4.775933        -1.236563         0.743788
 H         3.135387        -1.596671        -1.883759
