19
Iteration:  1650charge 0 multiplicity 1
 C        -0.080819        -0.008699         0.356407
 C         1.392859        -0.006783        -0.177436
 C         2.529334         0.450377         0.723792
 C         3.254071         0.387234        -0.659296
 C         1.976780         0.874323        -1.329890
 O         4.693459         0.345335        -0.767094
 C         4.587788        -1.125958        -0.360123
 C         3.122037        -1.140557        -0.985613
 O         1.778992        -1.369846        -0.579264
 H        -0.160317        -0.521976         1.251156
 H        -0.202661         1.133142         0.432568
 H        -0.785391        -0.357072        -0.376751
 H         2.321980         1.444693         1.123175
 H         2.882499        -0.098001         1.603568
 H         1.762575         1.959278        -1.088184
 H         1.760112         0.556425        -2.372503
 H         5.395803        -1.739833        -0.805432
 H         4.491233        -1.312869         0.751329
 H         3.158946        -1.406222        -2.058884
