19
Iteration:   334charge 0 multiplicity 1
 C        -0.024845         0.035594         0.195647
 C         1.385830        -0.004767        -0.118030
 C         2.580604         0.425621         0.776747
 C         3.208133         0.331413        -0.668934
 C         1.926930         0.983187        -1.326520
 O         4.625683         0.284043        -0.759841
 C         4.634423        -1.122656        -0.371175
 C         3.115845        -1.114491        -0.967446
 O         1.774934        -1.373892        -0.505333
 H        -0.160657        -0.608514         1.027845
 H        -0.364269         1.023953         0.549019
 H        -0.540771        -0.425397        -0.679340
 H         2.754333         1.451849         1.175312
 H         3.023010        -0.191211         1.573949
 H         1.592509         2.042884        -1.274572
 H         1.527306         0.812040        -2.316260
 H         5.243305        -1.738880        -1.015292
 H         4.955921        -1.357348         0.679543
 H         3.199668        -1.553520        -1.982198
