19
Iteration:  2506charge 0 multiplicity 1
 C        -0.028598        -0.081056         0.179150
 C         1.381594        -0.037156        -0.146123
 C         2.514952         0.554756         0.735556
 C         3.237387         0.432869        -0.625390
 C         2.017570         0.842040        -1.391666
 O         4.724024         0.284719        -0.806886
 C         4.529842        -1.115463        -0.417920
 C         3.069984        -1.072236        -0.958860
 O         1.794265        -1.368959        -0.334480
 H        -0.092006        -0.368918         1.213877
 H        -0.515017         0.943051        -0.072041
 H        -0.506580        -0.831272        -0.403624
 H         2.302662         1.671246         0.773832
 H         2.953597         0.294869         1.697620
 H         1.863636         1.915704        -1.323588
 H         1.763023         0.519270        -2.457631
 H         5.173727        -1.882771        -0.728506
 H         4.609583        -1.245849         0.757616
 H         3.051398        -1.527590        -1.950519
