19
Iteration:  1717
 C        -0.127719        -0.010655         0.166111
 C         1.371991         0.023850        -0.049315
 C         2.585290         0.582912         0.738620
 C         3.265130         0.398443        -0.561037
 C         1.917580         0.932363        -1.301956
 O         4.682345         0.273442        -0.718775
 C         4.618881        -1.202448        -0.565337
 C         3.093211        -1.111569        -0.965395
 O         1.838747        -1.428463        -0.447650
 H        -0.360932        -0.295050         1.121833
 H        -0.620906         0.901346        -0.148826
 H        -0.656158        -0.825751        -0.394539
 H         2.348577         1.572473         1.142978
 H         2.870448        -0.074907         1.573711
 H         1.632142         1.985491        -1.382359
 H         1.736701         0.503718        -2.277661
 H         5.352317        -1.631614        -1.219367
 H         4.892862        -1.525841         0.478569
 H         3.345011        -1.060813        -2.025560
