19
Iteration:  4090
 C        -0.152801         0.029354         0.436881
 C         1.326055        -0.035520        -0.215064
 C         2.522543         0.582001         0.583636
 C         3.257610         0.383307        -0.746871
 C         1.879553         0.731017        -1.462422
 O         4.762570         0.311228        -0.776420
 C         4.659914        -1.085165        -0.222319
 C         3.148406        -1.077104        -0.890155
 O         1.819280        -1.415367        -0.528262
 H        -0.589888        -0.957112         0.060204
 H         0.084974         0.077132         1.552939
 H        -0.730785         0.969078         0.164208
 H         2.281608         1.599762         1.082820
 H         2.778900         0.021806         1.504467
 H         1.522533         1.711820        -1.438059
 H         1.672358         0.155247        -2.389357
 H         5.373938        -1.748072        -0.643533
 H         4.837521        -0.865513         0.861368
 H         3.334528        -1.209824        -1.953778
