19
Iteration:  3906
 C        -0.045670        -0.051066         0.344317
 C         1.296635         0.033077        -0.282729
 C         2.485635         0.539556         0.553453
 C         3.245285         0.398132        -0.720773
 C         1.926134         0.845589        -1.472208
 O         4.687099         0.287044        -0.781216
 C         4.572066        -1.089749        -0.266889
 C         3.176367        -1.112174        -0.924953
 O         1.885572        -1.372309        -0.319373
 H        -0.595863        -0.928173        -0.026355
 H         0.079285        -0.282224         1.368353
 H        -0.744798         0.756345         0.531929
 H         2.480942         1.567620         0.962145
 H         2.681303        -0.188474         1.297879
 H         1.708812         1.910376        -1.378103
 H         1.765782         0.500664        -2.557164
 H         5.300580        -1.889728        -0.485277
 H         4.559269        -0.891618         0.833859
 H         3.295264        -1.522773        -1.965283
