19
Iteration:  4807charge 0 multiplicity 1
 C        -0.158068         0.012498         0.144909
 C         1.328367        -0.068238        -0.157722
 C         2.459999         0.560260         0.649799
 C         3.232377         0.407550        -0.710590
 C         2.051877         0.872294        -1.367969
 O         4.688546         0.322650        -0.855055
 C         4.710337        -1.104545        -0.386565
 C         3.110021        -1.138698        -0.831254
 O         1.848539        -1.442708        -0.242626
 H        -0.687869        -0.695819        -0.572395
 H        -0.487305        -0.300433         1.158892
 H        -0.533627         0.979190        -0.083672
 H         2.242881         1.628846         0.960853
 H         2.991311         0.124257         1.541134
 H         1.647549         1.820710        -1.037393
 H         1.933982         0.759129        -2.455474
 H         5.188958        -1.768841        -1.108522
 H         4.887145        -1.206771         0.729358
 H         2.977519        -1.490937        -1.912351
