19
Iteration:  3317charge 0 multiplicity 1
 C        -0.148335         0.022833         0.189369
 C         1.319997        -0.026864        -0.191200
 C         2.514758         0.527229         0.621232
 C         3.262068         0.398907        -0.730330
 C         1.898130         0.712120        -1.471113
 O         4.754921         0.352241        -0.910756
 C         4.609337        -1.010699        -0.277084
 C         3.158068        -1.084764        -0.834068
 O         1.840607        -1.414093        -0.198217
 H        -0.865997         0.399874        -0.503226
 H        -0.631161        -0.984033         0.476318
 H        -0.217481         0.545427         1.142291
 H         2.575369         1.535668         1.150108
 H         2.851444        -0.221931         1.366516
 H         1.815429         1.770291        -1.562024
 H         1.828162         0.090852        -2.416982
 H         5.278159        -1.664698        -0.814076
 H         4.957534        -1.010510         0.805589
 H         3.081877        -1.507412        -1.842063
