19
Iteration:  2105
 C        -0.134233        -0.051553         0.274710
 C         1.341202        -0.067414        -0.166815
 C         2.578003         0.637245         0.717278
 C         3.239316         0.364909        -0.586307
 C         2.044249         0.920342        -1.404080
 O         4.725924         0.296713        -0.704060
 C         4.597322        -1.188829        -0.474624
 C         3.084520        -1.089507        -0.978490
 O         1.757718        -1.405345        -0.432238
 H        -0.103288        -0.084406         1.305203
 H        -0.693361         0.875693        -0.089960
 H        -0.576130        -0.936561        -0.120301
 H         2.400947         1.759463         0.811015
 H         2.698700         0.110880         1.693529
 H         1.665699         1.926832        -1.182850
 H         2.153140         0.692584        -2.415476
 H         5.318319        -1.550780        -1.211087
 H         4.821165        -1.579183         0.558822
 H         3.139369        -1.356755        -2.004793
