19
Iteration:  1406
 C        -0.073833         0.087481         0.188770
 C         1.378202         0.065142        -0.090700
 C         2.488136         0.443131         0.829914
 C         3.261862         0.304199        -0.608185
 C         1.987185         0.811237        -1.287317
 O         4.623319         0.353471        -0.861317
 C         4.648245        -1.092816        -0.470307
 C         3.145384        -1.153617        -0.947272
 O         1.814333        -1.401020        -0.431467
 H        -0.464320        -0.911847         0.523095
 H        -0.484098         1.021929         0.672365
 H        -0.619988         0.287792        -0.697827
 H         2.492595         1.457331         1.061964
 H         2.834441        -0.238849         1.564243
 H         1.881063         1.914545        -1.357071
 H         1.635976         0.307133        -2.260979
 H         5.436325        -1.516727        -1.096465
 H         4.798442        -1.288047         0.634511
 H         3.033611        -1.424928        -1.994988
