19
Iteration:   126
 C        -0.147383         0.054438         0.125907
 C         1.362851         0.014752        -0.140021
 C         2.568823         0.525629         0.801160
 C         3.207043         0.334307        -0.597069
 C         2.040367         0.862080        -1.285263
 O         4.652060         0.302064        -0.847803
 C         4.619789        -1.076295        -0.539701
 C         3.082193        -1.143320        -0.977680
 O         1.845118        -1.452131        -0.301157
 H        -0.345557        -0.843496         0.804798
 H        -0.521574         1.014502         0.682166
 H        -0.759784        -0.201350        -0.814568
 H         2.915548         1.529635         1.148474
 H         2.756173        -0.134353         1.689744
 H         1.691775         1.975624        -1.030785
 H         1.895348         0.722747        -2.392809
 H         5.377227        -1.646616        -1.097907
 H         4.843594        -1.216000         0.569441
 H         2.955868        -1.238084        -2.080918
