19
Iteration:   426
 C        -0.146146        -0.043168         0.202146
 C         1.339176         0.091894        -0.126953
 C         2.515886         0.527178         0.684565
 C         3.240760         0.347677        -0.649844
 C         1.958214         0.966037        -1.304344
 O         4.689468         0.226723        -0.662929
 C         4.628025        -1.223560        -0.542033
 C         3.131168        -1.091522        -1.025851
 O         1.856386        -1.359227        -0.337223
 H        -0.343492        -0.903664         0.993123
 H        -0.593771         0.858093         0.698202
 H        -0.587377        -0.351457        -0.756481
 H         2.533995         1.577503         1.000867
 H         2.972605        -0.031770         1.499995
 H         1.890168         2.123628        -1.291175
 H         1.468101         0.811393        -2.322425
 H         5.362800        -1.703542        -1.246462
 H         4.999455        -1.512449         0.472452
 H         3.127107        -1.219015        -2.149357
