19
Iteration:  1332charge 0 multiplicity 1
 C        -0.047983        -0.127248         0.308143
 C         1.401447        -0.000845        -0.136801
 C         2.609672         0.561011         0.670781
 C         3.261860         0.439346        -0.694807
 C         2.028578         0.894360        -1.337740
 O         4.698363         0.260487        -0.716323
 C         4.496544        -1.160648        -0.383625
 C         3.092491        -1.074182        -0.923871
 O         1.745098        -1.356453        -0.534900
 H        -0.108338        -0.682358         1.241905
 H        -0.513275         0.947810         0.577958
 H        -0.730792        -0.553642        -0.469515
 H         2.312037         1.621817         0.879623
 H         2.851707        -0.134093         1.548644
 H         1.802638         1.913545        -1.424960
 H         1.774879         0.553874        -2.308471
 H         5.191051        -1.800532        -0.922127
 H         4.751997        -1.164738         0.685115
 H         3.031429        -1.123632        -2.074636
