19
Iteration:  4924charge 0 multiplicity 1
 C        -0.022127        -0.037532         0.280801
 C         1.380573        -0.040807        -0.184450
 C         2.566028         0.672755         0.545063
 C         3.223390         0.357178        -0.787803
 C         1.891439         0.820926        -1.442788
 O         4.712894         0.290780        -0.715850
 C         4.549717        -1.101025        -0.221952
 C         3.156860        -1.089221        -0.856758
 O         1.806612        -1.448445        -0.424299
 H        -0.677984        -0.018335        -0.603674
 H        -0.381790        -0.911222         0.881553
 H        -0.316080         0.932803         0.683946
 H         2.299805         1.680103         0.928921
 H         2.956181         0.260474         1.501712
 H         1.727189         1.874440        -1.175062
 H         1.485498         0.494238        -2.435811
 H         5.256392        -1.669884        -0.848976
 H         4.562333        -1.184060         0.879217
 H         3.397334        -1.502651        -1.816070
