19
Iteration:  3676charge 0 multiplicity 1
 C        -0.102584        -0.009698         0.041403
 C         1.437247         0.001252        -0.129269
 C         2.525438         0.659741         0.717605
 C         3.215762         0.341690        -0.617398
 C         1.968378         0.847232        -1.296483
 O         4.604456         0.318693        -0.919684
 C         4.597132        -1.112129        -0.467681
 C         3.107732        -1.168391        -0.856074
 O         1.928520        -1.465978        -0.184539
 H        -0.522372        -0.866275        -0.481964
 H        -0.414981        -0.068876         1.110276
 H        -0.677541         0.822500        -0.489997
 H         2.451783         1.740946         0.861966
 H         2.737661         0.070827         1.646183
 H         1.768985         1.987028        -1.297754
 H         1.755869         0.627852        -2.346954
 H         5.373732        -1.580124        -1.025191
 H         4.641819        -1.231055         0.692233
 H         2.941655        -1.442656        -1.958148
