19
Iteration:  1815
 C        -0.081005         0.031648         0.348442
 C         1.343901        -0.046229        -0.213419
 C         2.583353         0.479265         0.666571
 C         3.252585         0.324321        -0.712887
 C         1.959675         0.993637        -1.371083
 O         4.672276         0.310152        -0.750798
 C         4.567063        -1.126790        -0.285774
 C         3.100103        -1.082762        -0.997542
 O         1.864116        -1.444735        -0.498734
 H        -0.219493        -0.859295         0.861231
 H        -0.237874         0.878697         0.995187
 H        -0.969231         0.047806        -0.351174
 H         2.363500         1.480501         0.989586
 H         2.896908        -0.180911         1.457612
 H         1.824018         2.098101        -1.252847
 H         1.532814         0.594823        -2.326177
 H         5.296128        -1.797306        -0.718866
 H         4.581125        -1.076770         0.849015
 H         3.213698        -1.486690        -1.989272
