19
Iteration:  1204charge 0 multiplicity 1
 C         0.003653        -0.074054         0.233210
 C         1.409918         0.009953        -0.180823
 C         2.531319         0.503476         0.716499
 C         3.291649         0.421683        -0.671662
 C         1.957336         0.957544        -1.357895
 O         4.722711         0.309062        -0.741720
 C         4.473896        -1.184868        -0.421207
 C         3.080456        -1.118303        -0.952168
 O         1.780803        -1.365552        -0.413728
 H        -0.218524        -0.954933         0.742926
 H        -0.108961         0.772291         0.806908
 H        -0.523530        -0.125651        -0.750820
 H         2.482144         1.596926         1.003445
 H         2.858854        -0.035284         1.630138
 H         1.615915         1.960036        -1.000053
 H         1.832672         0.632971        -2.396423
 H         5.145761        -1.895680        -0.945162
 H         4.563472        -1.349818         0.659248
 H         2.886956        -1.454435        -1.914873
