19
Iteration:  4742
 C        -0.040727         0.011035         0.354051
 C         1.354523        -0.063853        -0.265446
 C         2.507427         0.715037         0.582236
 C         3.218717         0.348099        -0.753542
 C         1.920875         0.837009        -1.400570
 O         4.784292         0.308135        -0.705250
 C         4.501665        -1.087103        -0.272394
 C         3.121732        -1.128651        -0.967579
 O         1.825687        -1.504786        -0.438875
 H        -0.703458        -0.885077         0.139837
 H         0.221539        -0.044799         1.440373
 H        -0.593206         0.776193        -0.135655
 H         2.375471         1.731442         0.928834
 H         2.983567         0.207258         1.479558
 H         1.562947         1.721321        -0.895110
 H         1.744866         0.664521        -2.466063
 H         5.426843        -1.625680        -0.564352
 H         4.549509        -1.165530         0.855311
 H         3.231128        -1.392356        -2.064225
