19
Iteration:  3342charge 0 multiplicity 1
 C        -0.130457         0.011630         0.039834
 C         1.377247         0.008706        -0.040937
 C         2.542530         0.676679         0.649957
 C         3.237494         0.303843        -0.673391
 C         1.847547         0.757527        -1.407868
 O         4.605677         0.368929        -0.866924
 C         4.701012        -1.089538        -0.388081
 C         3.159516        -1.220606        -0.832081
 O         1.890988        -1.438106        -0.220264
 H        -0.642045         0.421150        -0.788383
 H        -0.606550        -0.876869         0.240353
 H        -0.361041         0.608962         0.945539
 H         2.571416         1.720409         0.791099
 H         2.970089         0.334267         1.613619
 H         1.684479         1.848174        -1.317077
 H         1.698308         0.349921        -2.347025
 H         5.498247        -1.587916        -0.964260
 H         4.955373        -1.025297         0.667458
 H         3.034126        -1.644338        -1.868803
