19
Iteration:  2818charge 0 multiplicity 1
 C        -0.075167         0.073509         0.218594
 C         1.380646        -0.117630        -0.215118
 C         2.581123         0.555172         0.748851
 C         3.161628         0.328098        -0.658017
 C         1.956151         0.859549        -1.308383
 O         4.640221         0.332612        -0.802009
 C         4.666692        -1.055139        -0.350430
 C         3.201058        -1.133341        -0.900397
 O         1.762082        -1.460803        -0.507249
 H        -0.100043         0.062372         1.305291
 H        -0.538320         1.067249        -0.046399
 H        -0.556479        -0.811180        -0.058648
 H         2.339924         1.628212         0.872961
 H         2.801773         0.154389         1.694525
 H         1.635575         1.875985        -1.062678
 H         1.718403         0.457872        -2.329127
 H         5.374113        -1.694568        -0.916218
 H         4.795753        -1.029239         0.768370
 H         3.194138        -1.364421        -1.966801
