19
Iteration:  2271charge 0 multiplicity 1
 C        -0.135550         0.029081         0.270983
 C         1.295249         0.008631        -0.172904
 C         2.543795         0.446102         0.726871
 C         3.232776         0.398092        -0.688426
 C         1.993616         0.957613        -1.423323
 O         4.673502         0.214809        -0.786352
 C         4.607019        -1.120027        -0.336777
 C         3.146607        -1.032904        -0.954852
 O         1.877671        -1.421070        -0.425982
 H        -0.384133        -0.597728         1.115515
 H        -0.510365         1.042292         0.440562
 H        -0.657528        -0.414878        -0.661114
 H         2.464239         1.486941         1.205426
 H         2.871591        -0.250578         1.583200
 H         1.700999         1.936575        -1.162610
 H         1.713188         0.734746        -2.465159
 H         5.235219        -1.954076        -0.764957
 H         4.905474        -1.113598         0.729701
 H         3.210725        -1.385421        -1.944957
