19
Iteration:  1131charge 0 multiplicity 1
 C        -0.030314         0.077856         0.202991
 C         1.327212        -0.034833        -0.164384
 C         2.577996         0.431201         0.769306
 C         3.246524         0.346131        -0.609264
 C         2.044396         0.937380        -1.375268
 O         4.655907         0.381343        -0.716969
 C         4.590916        -1.111866        -0.455254
 C         3.043829        -1.163306        -0.977403
 O         1.772895        -1.437097        -0.455301
 H        -0.161173        -0.473593         1.201287
 H        -0.121892         1.141563         0.517071
 H        -0.800818        -0.368530        -0.539209
 H         2.549387         1.365959         1.291479
 H         2.806349        -0.294834         1.481265
 H         1.625179         1.992669        -1.225762
 H         2.067623         0.470679        -2.385108
 H         5.394024        -1.628584        -1.041112
 H         4.695682        -1.360722         0.615351
 H         3.042708        -1.318201        -2.108041
