19
Iteration:  3194
 C        -0.109236         0.046725         0.025280
 C         1.332149         0.112001        -0.132576
 C         2.538038         0.520697         0.785623
 C         3.219511         0.345353        -0.687789
 C         1.867822         0.779579        -1.398701
 O         4.648987         0.365923        -0.888687
 C         4.700881        -1.055635        -0.400955
 C         3.221785        -1.170577        -0.836674
 O         1.843113        -1.448415        -0.199297
 H        -0.486480        -0.993782        -0.251174
 H        -0.343793         0.011735         1.080484
 H        -0.723237         0.796197        -0.464930
 H         2.450880         1.570529         1.016797
 H         2.750541        -0.240812         1.536987
 H         1.553120         1.877220        -1.338427
 H         1.671328         0.350384        -2.394726
 H         5.346041        -1.686821        -1.115918
 H         5.048359        -1.198958         0.622034
 H         3.178393        -1.673793        -1.786689
