19
Iteration:  1826
 C        -0.052004        -0.021903         0.369109
 C         1.345283         0.000974        -0.200901
 C         2.504553         0.517989         0.617953
 C         3.221163         0.382728        -0.717636
 C         2.000675         0.963618        -1.326904
 O         4.668891         0.300812        -0.720361
 C         4.538195        -1.124759        -0.360745
 C         3.168966        -1.174774        -0.986417
 O         1.808733        -1.453750        -0.481748
 H        -0.256384        -0.751329         1.082300
 H        -0.105716         0.910629         0.886529
 H        -0.719303         0.002194        -0.532034
 H         2.490166         1.589353         0.761588
 H         2.847872         0.084340         1.534504
 H         1.691596         1.975669        -0.977792
 H         1.968691         0.864269        -2.462517
 H         5.377827        -1.652351        -0.800028
 H         4.589567        -1.272895         0.778326
 H         3.316337        -1.411396        -2.034534
