19
Iteration:  1603
 C        -0.109469        -0.017168         0.194194
 C         1.368446        -0.058750        -0.180152
 C         2.543451         0.478854         0.702504
 C         3.266324         0.402305        -0.628729
 C         1.975625         0.921889        -1.372559
 O         4.701575         0.320728        -0.709167
 C         4.538902        -1.204523        -0.512688
 C         3.088329        -1.004350        -0.968622
 O         1.839415        -1.373640        -0.297447
 H        -0.185327        -1.102243         0.457854
 H        -0.235629         0.660456         1.020125
 H        -0.785046         0.172714        -0.610706
 H         2.562880         1.398221         1.253308
 H         2.853222        -0.194104         1.481245
 H         1.716733         2.059077        -1.360785
 H         1.917295         0.330699        -2.373420
 H         5.158403        -1.771861        -1.298103
 H         4.929699        -1.330823         0.511851
 H         2.920624        -1.166183        -2.035531
