19
Iteration:  3012charge 0 multiplicity 1
 C        -0.087214        -0.099473         0.137586
 C         1.378251         0.045800        -0.107332
 C         2.492468         0.669339         0.716138
 C         3.267252         0.322520        -0.655164
 C         2.025855         0.869265        -1.307517
 O         4.666301         0.363365        -0.725125
 C         4.556974        -1.138450        -0.529842
 C         3.084463        -1.159254        -1.000012
 O         1.859590        -1.475035        -0.279145
 H        -0.320470         0.000205         1.249948
 H        -0.487282         0.825034        -0.374026
 H        -0.484574        -0.934615        -0.411270
 H         2.410602         1.831006         0.714592
 H         2.685259         0.495101         1.796726
 H         1.783675         1.878289        -1.084956
 H         1.941802         0.369685        -2.295644
 H         5.306650        -1.538461        -1.222840
 H         4.704040        -1.499971         0.490169
 H         2.999452        -1.336218        -2.091288
