19
Iteration:  4720
 C        -0.063136        -0.015334         0.307036
 C         1.406413         0.002281        -0.149508
 C         2.484364         0.510898         0.659662
 C         3.240698         0.313987        -0.735710
 C         1.939198         0.873915        -1.489493
 O         4.624472         0.349563        -0.801372
 C         4.587247        -1.115063        -0.279857
 C         3.141819        -1.107950        -0.876667
 O         1.856319        -1.392904        -0.433012
 H        -0.873990        -0.587996        -0.218858
 H        -0.051002        -0.241457         1.404263
 H        -0.314096         0.982776        -0.032062
 H         2.383981         1.572115         0.953564
 H         2.785445        -0.039988         1.589622
 H         1.806250         1.948881        -1.419412
 H         1.803993         0.300584        -2.410230
 H         5.443631        -1.772059        -0.537715
 H         4.713750        -1.072985         0.841588
 H         3.335988        -1.524206        -1.910687
