19
Iteration:  1752charge 0 multiplicity 1
 C        -0.136717         0.012163         0.173021
 C         1.377007        -0.004421        -0.178082
 C         2.478104         0.519898         0.706001
 C         3.254753         0.363578        -0.621272
 C         1.993395         1.015636        -1.299845
 O         4.663474         0.313492        -0.733659
 C         4.637202        -1.149507        -0.543015
 C         3.105292        -1.171026        -0.985653
 O         1.892598        -1.446639        -0.297234
 H        -0.290885        -0.698262         1.029134
 H        -0.453365         0.919177         0.537752
 H        -0.701748        -0.352618        -0.737688
 H         2.475113         1.600258         1.008878
 H         2.650475        -0.133199         1.584886
 H         1.851620         2.014680        -1.074541
 H         1.821254         0.735160        -2.300968
 H         5.189814        -1.784833        -1.201758
 H         4.709674        -1.430092         0.493785
 H         2.915523        -1.351766        -2.113286
