19
Iteration:  2481charge 0 multiplicity 1
 C        -0.106535        -0.052826         0.321091
 C         1.351107         0.072407        -0.175218
 C         2.554032         0.666207         0.621251
 C         3.208889         0.376957        -0.716039
 C         1.933769         0.851032        -1.431547
 O         4.661671         0.265470        -0.721089
 C         4.564506        -1.172424        -0.307754
 C         3.159183        -1.121636        -0.973189
 O         1.874083        -1.409790        -0.426227
 H        -0.089216        -0.926230         1.106658
 H        -0.531630         0.900625         0.587772
 H        -0.653298        -0.375322        -0.568846
 H         2.623828         1.793261         0.866980
 H         2.869877        -0.001038         1.505291
 H         1.692884         1.874847        -1.066187
 H         1.797772         0.765840        -2.489498
 H         5.264911        -1.949306        -0.745982
 H         4.702512        -1.254400         0.780895
 H         3.337677        -1.530362        -1.944807
