19
Iteration:  1759
 C        -0.113411         0.010647         0.219922
 C         1.348156         0.003951        -0.167494
 C         2.483365         0.581484         0.729618
 C         3.209800         0.319842        -0.650028
 C         2.035959         0.961198        -1.294859
 O         4.637022         0.312130        -0.744141
 C         4.625131        -1.165320        -0.535713
 C         3.176525        -1.113438        -0.979857
 O         1.867329        -1.481424        -0.350078
 H        -0.412108        -0.749731         0.856113
 H        -0.534480         1.005725         0.596162
 H        -0.576310        -0.203339        -0.763537
 H         2.537241         1.603899         1.009460
 H         2.709748        -0.120977         1.515499
 H         1.775257         2.045691        -0.964670
 H         1.789883         0.955531        -2.407107
 H         5.329520        -1.813855        -1.095671
 H         4.777508        -1.339181         0.583403
 H         2.919087        -1.435004        -1.937551
