19
Iteration:  2706
 C        -0.087893         0.064171         0.057381
 C         1.364105         0.005611        -0.120117
 C         2.533395         0.439799         0.759795
 C         3.198902         0.341144        -0.710950
 C         1.966684         0.782425        -1.388177
 O         4.738224         0.416697        -0.832362
 C         4.640361        -1.054264        -0.406583
 C         3.053636        -1.126725        -0.890016
 O         1.830965        -1.404480        -0.242038
 H        -0.289646        -0.676485         0.921534
 H        -0.535393         0.980913         0.349214
 H        -0.731129        -0.288615        -0.803149
 H         2.338839         1.333236         1.315472
 H         2.818328        -0.343894         1.472737
 H         1.883016         1.945237        -1.347856
 H         1.615754         0.207729        -2.274629
 H         5.391220        -1.538819        -1.150861
 H         4.815111        -1.190771         0.678465
 H         3.127964        -1.618781        -1.842032
