19
Iteration:  3712charge 0 multiplicity 1
 C        -0.135478         0.062617         0.228615
 C         1.309935         0.011480        -0.140364
 C         2.563711         0.577816         0.700714
 C         3.206699         0.353383        -0.740589
 C         1.888958         0.773461        -1.437804
 O         4.769411         0.370187        -0.880491
 C         4.629971        -1.067738        -0.373870
 C         3.176530        -1.165594        -0.775162
 O         1.826988        -1.448306        -0.329850
 H        -0.667021        -0.550304        -0.638269
 H        -0.417196        -0.422999         1.152491
 H        -0.468140         1.124453         0.258972
 H         2.454895         1.593750         1.072356
 H         2.740272        -0.127137         1.507264
 H         1.619481         1.826171        -1.425321
 H         1.694222         0.101245        -2.291166
 H         5.450263        -1.575471        -0.910534
 H         4.717043        -1.310812         0.656101
 H         3.222274        -1.526540        -1.814193
