19
Iteration:  4841
 C        -0.111840         0.105600         0.076172
 C         1.346573         0.015734        -0.099127
 C         2.544763         0.546423         0.676317
 C         3.266182         0.339681        -0.660571
 C         1.963678         0.677371        -1.319100
 O         4.647515         0.403669        -0.848912
 C         4.603772        -1.107729        -0.374698
 C         3.106629        -1.115696        -0.896289
 O         1.873508        -1.432354        -0.290994
 H        -0.552420         0.044073        -0.973244
 H        -0.385259        -0.756210         0.688000
 H        -0.411796         1.002780         0.534088
 H         2.383684         1.599387         0.825654
 H         2.911426         0.020437         1.579266
 H         1.524161         1.651815        -1.224798
 H         1.794138         0.217916        -2.296755
 H         5.363500        -1.753731        -0.768366
 H         4.805481        -1.135460         0.740529
 H         3.163150        -1.541897        -1.953621
