19
Iteration:  2051
 C        -0.132636         0.096030         0.105774
 C         1.368994        -0.100058        -0.135516
 C         2.573764         0.437443         0.747485
 C         3.232600         0.379376        -0.674220
 C         2.015814         0.934529        -1.323602
 O         4.693900         0.333812        -0.827290
 C         4.556155        -1.112002        -0.471539
 C         3.085214        -1.068147        -0.912368
 O         1.854503        -1.473560        -0.273459
 H        -0.399096        -0.413659         0.966683
 H        -0.405293         1.197700         0.127675
 H        -0.663586        -0.372239        -0.703684
 H         2.478355         1.426152         1.267419
 H         2.871431        -0.418700         1.450570
 H         1.835061         1.984742        -1.186818
 H         1.767206         0.656898        -2.289756
 H         5.366094        -1.660674        -0.945651
 H         4.516747        -1.189426         0.624744
 H         3.031077        -1.359314        -1.987321
