19
Iteration:  1892charge 0 multiplicity 1
 C        -0.070330         0.003726         0.069659
 C         1.378520        -0.076301        -0.066404
 C         2.529820         0.510147         0.700094
 C         3.269563         0.328353        -0.642506
 C         1.949828         0.989599        -1.190645
 O         4.696968         0.292419        -0.802294
 C         4.619077        -1.119701        -0.497061
 C         3.133038        -1.110420        -0.969895
 O         1.787016        -1.407514        -0.330706
 H        -0.348923         0.055101         1.125408
 H        -0.396995         0.957717        -0.251748
 H        -0.682783        -0.803478        -0.435666
 H         2.351418         1.567967         0.868050
 H         2.847379         0.007430         1.586482
 H         1.578269         2.008422        -1.001886
 H         1.907119         0.696021        -2.290296
 H         5.325994        -1.623113        -1.160897
 H         4.512088        -1.480720         0.551348
 H         3.020863        -1.427486        -1.956087
