19
Iteration:  2198
 C        -0.179852         0.089288         0.196505
 C         1.350498        -0.025566        -0.241862
 C         2.471365         0.483967         0.686303
 C         3.271603         0.331325        -0.642164
 C         1.969054         0.828993        -1.326020
 O         4.783120         0.321844        -0.769882
 C         4.614717        -1.084254        -0.432790
 C         3.106120        -1.095546        -0.965953
 O         1.845734        -1.390150        -0.275809
 H        -0.432414        -1.057165         0.536447
 H        -0.361449         0.744219         1.039582
 H        -0.876413         0.328526        -0.621705
 H         2.333113         1.499430         1.105547
 H         2.769845        -0.315562         1.392065
 H         2.011065         1.971335        -1.220547
 H         1.949767         0.522928        -2.408897
 H         5.353926        -1.686652        -1.060780
 H         4.690267        -1.552725         0.554082
 H         2.831982        -1.272600        -2.127151
