19
Iteration:  1219
 C        -0.101643        -0.037479         0.214455
 C         1.391259         0.028537        -0.182903
 C         2.537075         0.568963         0.690749
 C         3.193436         0.349312        -0.635060
 C         2.010730         0.996824        -1.336398
 O         4.676412         0.210405        -0.729804
 C         4.584561        -1.198366        -0.465090
 C         3.065559        -1.062643        -0.995484
 O         1.879589        -1.403677        -0.329739
 H        -0.028235        -0.918331         0.935434
 H        -0.625534         0.896545         0.590246
 H        -0.833617        -0.301539        -0.569473
 H         2.385757         1.567578         1.018308
 H         2.739821        -0.131037         1.469314
 H         1.762137         2.117018        -1.117559
 H         1.851130         0.848560        -2.470393
 H         5.343113        -1.666875        -1.130037
 H         4.716690        -1.446652         0.613340
 H         3.191699        -1.193392        -2.124290
