19
Iteration:   735
 C        -0.087358         0.061647         0.216067
 C         1.360277        -0.087428        -0.160370
 C         2.629012         0.385094         0.730192
 C         3.203708         0.374593        -0.669533
 C         1.969959         0.968245        -1.339241
 O         4.686360         0.339202        -0.787398
 C         4.598645        -1.105787        -0.370843
 C         3.132071        -1.081514        -0.981910
 O         1.758706        -1.412200        -0.388237
 H        -0.289266        -0.730861         0.972542
 H        -0.191221         1.092884         0.681619
 H        -0.711959        -0.224625        -0.680566
 H         2.400544         1.416699         0.992025
 H         3.081424        -0.328769         1.436773
 H         1.591625         1.967449        -1.240416
 H         1.824938         0.500136        -2.374882
 H         5.270544        -1.585772        -1.032182
 H         4.726519        -1.316135         0.755082
 H         3.067194        -1.375613        -2.050186
