19
Iteration:  2982
 C        -0.111613        -0.064712         0.233442
 C         1.313437         0.018318        -0.214218
 C         2.487301         0.483257         0.706099
 C         3.211221         0.447458        -0.696617
 C         1.890967         0.922191        -1.403975
 O         4.729874         0.232675        -0.830176
 C         4.644800        -1.120242        -0.323090
 C         3.169921        -1.009024        -0.869355
 O         1.877517        -1.415863        -0.354749
 H        -0.232227        -0.373705         1.252587
 H        -0.305412         1.058695         0.450622
 H        -0.764337        -0.675803        -0.367682
 H         2.303127         1.568269         0.938698
 H         2.867361        -0.170913         1.454078
 H         1.544361         1.970801        -1.587971
 H         1.817019         0.374767        -2.476569
 H         5.162943        -1.775780        -0.999702
 H         4.851779        -1.498072         0.742764
 H         3.335635        -1.248895        -1.893991
