19
Iteration:   550charge 0 multiplicity 1
 C        -0.007886        -0.109914         0.334749
 C         1.381256         0.020729        -0.192196
 C         2.456976         0.612421         0.727320
 C         3.260892         0.377326        -0.625546
 C         1.881986         0.986554        -1.385795
 O         4.797962         0.232003        -0.744788
 C         4.583366        -1.212857        -0.433957
 C         3.112260        -1.088796        -0.978018
 O         1.799101        -1.358414        -0.462788
 H        -0.322603        -0.918117         0.916005
 H        -0.112417         0.883542         0.793794
 H        -0.708646        -0.069697        -0.502357
 H         2.288090         1.675027         0.972568
 H         2.655970        -0.066246         1.577999
 H         1.457796         1.973971        -1.179574
 H         1.755448         0.658166        -2.427999
 H         5.132677        -1.858948        -1.077356
 H         4.706284        -1.431776         0.621932
 H         3.143068        -1.424126        -1.992688
