19
Iteration:  2483charge 0 multiplicity 1
 C        -0.078436        -0.063690         0.308632
 C         1.351689         0.069672        -0.160573
 C         2.556314         0.688121         0.624783
 C         3.215385         0.364353        -0.719388
 C         1.950454         0.859083        -1.417518
 O         4.656033         0.271052        -0.723404
 C         4.548070        -1.179779        -0.316035
 C         3.164900        -1.130934        -0.980185
 O         1.862999        -1.417354        -0.425251
 H        -0.163285        -0.848808         1.094796
 H        -0.578254         0.899775         0.589067
 H        -0.603471        -0.428280        -0.538672
 H         2.591253         1.783993         0.902839
 H         2.803591         0.050788         1.504492
 H         1.648152         1.863660        -1.096091
 H         1.824856         0.742798        -2.499245
 H         5.251714        -1.881164        -0.734474
 H         4.701271        -1.213794         0.806901
 H         3.287472        -1.486000        -1.989442
