19
Iteration:  2415charge 0 multiplicity 1
 C        -0.132987         0.114889         0.194899
 C         1.353638        -0.007564        -0.155093
 C         2.471586         0.526500         0.718702
 C         3.224303         0.361733        -0.691478
 C         1.933730         0.863194        -1.350564
 O         4.696977         0.321902        -0.851883
 C         4.634957        -1.122498        -0.349378
 C         3.164487        -1.133178        -0.915852
 O         1.889168        -1.489843        -0.363156
 H        -0.740636        -0.779273         0.589221
 H        -0.368365         0.903904         0.868675
 H        -0.668365         0.287915        -0.756854
 H         2.565933         1.621488         0.998141
 H         2.852799        -0.115201         1.596218
 H         1.680992         1.920342        -1.107749
 H         1.774827         0.651481        -2.391783
 H         5.426851        -1.780360        -0.880999
 H         4.740704        -1.274107         0.727969
 H         3.132278        -1.565061        -1.877797
