19
Iteration:  3443
 C        -0.074380         0.038757         0.408977
 C         1.305783        -0.039889        -0.184856
 C         2.513752         0.517197         0.592607
 C         3.209558         0.355812        -0.767528
 C         1.919259         0.780129        -1.455053
 O         4.736428         0.359290        -0.832177
 C         4.581710        -1.024370        -0.173954
 C         3.120801        -1.085100        -0.929692
 O         1.905775        -1.442043        -0.432239
 H        -0.737091        -0.829992         0.048259
 H        -0.097705         0.231084         1.487933
 H        -0.594584         0.780030        -0.168885
 H         2.520668         1.512871         1.097785
 H         2.817743        -0.304490         1.271411
 H         1.551621         1.797546        -1.395208
 H         1.935467         0.362576        -2.489084
 H         5.269867        -1.735784        -0.725925
 H         4.447654        -1.000576         0.895314
 H         3.266165        -1.572932        -1.940666
