19
Iteration:   472
 C        -0.157616         0.072138         0.171205
 C         1.388502        -0.060234        -0.035586
 C         2.570619         0.446181         0.798741
 C         3.223151         0.331692        -0.623292
 C         2.025233         0.932464        -1.295403
 O         4.652883         0.279191        -0.826284
 C         4.639388        -1.138259        -0.492791
 C         3.094975        -1.028253        -0.970149
 O         1.839221        -1.428903        -0.474598
 H        -0.330963         0.016939         1.299598
 H        -0.595767         1.140881        -0.001321
 H        -0.729649        -0.727795        -0.383775
 H         2.477017         1.514535         1.172081
 H         2.751261        -0.206499         1.695035
 H         1.814260         2.098132        -1.169108
 H         1.903020         0.773501        -2.371948
 H         5.431854        -1.760117        -0.887145
 H         4.479398        -1.426780         0.590111
 H         3.086157        -1.276791        -2.025211
