19
Iteration:  3190
 C        -0.129513         0.026708         0.044257
 C         1.323509         0.137211        -0.147094
 C         2.525302         0.513307         0.734375
 C         3.186770         0.361489        -0.703083
 C         1.890735         0.751266        -1.353627
 O         4.646721         0.366637        -0.881163
 C         4.702350        -1.101940        -0.390758
 C         3.227507        -1.144541        -0.841346
 O         1.872759        -1.443788        -0.186174
 H        -0.484838        -0.932523        -0.338295
 H        -0.359351         0.228812         1.096624
 H        -0.804929         0.750909        -0.536388
 H         2.549885         1.517374         1.170436
 H         2.781831        -0.270813         1.447974
 H         1.494801         1.792532        -1.399394
 H         1.714512         0.486066        -2.381718
 H         5.241554        -1.691876        -1.103576
 H         5.165536        -1.146523         0.602008
 H         3.239295        -1.594035        -1.844126
