19
Iteration:    41charge 0 multiplicity 1
 C        -0.011429        -0.095198         0.401455
 C         1.363283        -0.009215        -0.257969
 C         2.563405         0.568363         0.613969
 C         3.261104         0.445971        -0.638081
 C         1.939533         0.934140        -1.398435
 O         4.700491         0.230928        -0.641861
 C         4.597023        -1.196014        -0.454200
 C         3.065353        -1.025196        -0.979064
 O         1.761848        -1.379738        -0.454437
 H        -0.077180        -0.242559         1.453354
 H        -0.606643         0.827957        -0.015500
 H        -0.362493        -1.185437         0.159646
 H         2.348753         1.631366         0.976453
 H         3.083032         0.022726         1.466015
 H         1.598693         2.017587        -1.324460
 H         1.731524         0.701573        -2.435753
 H         5.304669        -1.767422        -1.053076
 H         4.676003        -1.460964         0.680663
 H         3.133944        -1.212985        -2.078123
