19
Iteration:  2965
 C        -0.098850         0.008216         0.312426
 C         1.348681         0.027690        -0.170267
 C         2.562749         0.514343         0.645434
 C         3.246721         0.335786        -0.738720
 C         1.878615         0.839273        -1.436413
 O         4.712032         0.338931        -0.803070
 C         4.605960        -1.066105        -0.253951
 C         3.151279        -1.144150        -0.880504
 O         1.808925        -1.393645        -0.481914
 H        -0.208623        -0.837835         1.056119
 H        -0.417469         0.903018         0.825482
 H        -0.665462        -0.289921        -0.618474
 H         2.549197         1.462770         1.154942
 H         2.838978        -0.251298         1.443868
 H         1.666892         1.873412        -1.175956
 H         1.637825         0.435242        -2.358731
 H         5.441352        -1.712508        -0.628743
 H         4.748994        -0.919639         0.799816
 H         3.298592        -1.540488        -1.942006
