19
Iteration:  2854charge 0 multiplicity 1
 C        -0.128268        -0.041144         0.089858
 C         1.358671        -0.028692        -0.097683
 C         2.513418         0.510197         0.757181
 C         3.239738         0.424844        -0.696882
 C         1.923732         0.930246        -1.381121
 O         4.762983         0.285045        -0.838961
 C         4.581236        -1.091826        -0.473836
 C         3.150980        -1.116931        -0.915858
 O         1.846369        -1.397965        -0.205860
 H        -0.187582        -0.798968         0.828830
 H        -0.729778         0.867106         0.269094
 H        -0.700947        -0.351726        -0.814806
 H         2.489344         1.583193         1.097533
 H         2.793347        -0.177884         1.561496
 H         1.664218         1.951272        -1.182392
 H         1.733723         0.690106        -2.440268
 H         5.330646        -1.703378        -0.918025
 H         4.680075        -1.259033         0.631489
 H         3.077202        -1.607709        -1.949159
