19
Iteration:  3687
 C        -0.129349         0.021760         0.066204
 C         1.291521        -0.050352        -0.139322
 C         2.522211         0.586048         0.668156
 C         3.243427         0.362796        -0.694754
 C         1.921379         0.851915        -1.307697
 O         4.649358         0.246164        -0.907433
 C         4.668831        -1.094782        -0.464180
 C         3.151045        -1.079021        -0.839205
 O         1.927473        -1.437698        -0.168081
 H        -0.559420        -0.803247        -0.494457
 H        -0.531061        -0.012632         1.095605
 H        -0.364628         1.068925        -0.371122
 H         2.294635         1.640085         0.849171
 H         2.829023         0.113354         1.643291
 H         1.572104         1.852319        -0.823645
 H         1.633832         0.514313        -2.303048
 H         5.471487        -1.689427        -0.853148
 H         4.806774        -1.162400         0.725477
 H         3.161503        -1.219492        -1.987001
