19
Iteration:  3751
 C        -0.006942        -0.055846         0.432608
 C         1.349255         0.035681        -0.226652
 C         2.438018         0.641314         0.508892
 C         3.256082         0.361271        -0.791440
 C         1.937009         0.843997        -1.547009
 O         4.712466         0.330272        -0.738253
 C         4.548991        -1.082756        -0.291403
 C         3.189275        -1.192298        -0.857989
 O         1.821732        -1.485524        -0.355643
 H        -0.891709         0.053795        -0.135127
 H        -0.102749        -0.925541         1.138639
 H        -0.185685         0.960829         0.960353
 H         2.340228         1.729031         0.691388
 H         2.888575         0.237302         1.455460
 H         1.673394         1.946897        -1.373398
 H         1.676143         0.669490        -2.584299
 H         5.233512        -1.853473        -0.600872
 H         4.537385        -0.909550         0.868609
 H         3.313993        -1.622854        -1.906722
