19
Iteration:  1453charge 0 multiplicity 1
 C        -0.031553        -0.044427         0.227821
 C         1.416583        -0.016682        -0.072393
 C         2.584590         0.522610         0.708797
 C         3.232701         0.319705        -0.652526
 C         1.975599         0.975184        -1.314382
 O         4.703271         0.310133        -0.766639
 C         4.505566        -1.117954        -0.454856
 C         3.079603        -1.092392        -1.008545
 O         1.817193        -1.420860        -0.410658
 H        -0.186066        -0.514663         1.172885
 H        -0.503428         1.019032         0.052861
 H        -0.539682        -0.647896        -0.485783
 H         2.352306         1.597095         0.904881
 H         2.780865        -0.153067         1.558292
 H         1.623264         1.965540        -1.041324
 H         1.925693         0.840373        -2.366903
 H         5.138066        -1.883102        -0.938986
 H         4.492042        -1.216431         0.628992
 H         3.005531        -1.364326        -2.112589
