19
Iteration:  2316charge 0 multiplicity 1
 C        -0.092305         0.106541         0.336681
 C         1.358474        -0.014573        -0.114364
 C         2.543003         0.477378         0.636794
 C         3.229774         0.335978        -0.696908
 C         1.955863         0.886565        -1.396005
 O         4.675420         0.303443        -0.686132
 C         4.591806        -1.107747        -0.325360
 C         3.140729        -1.146536        -0.969799
 O         1.816976        -1.423335        -0.557352
 H        -0.207674         0.123848         1.472798
 H        -0.592317         0.937361        -0.066153
 H        -0.683414        -0.772190         0.019502
 H         2.581848         1.563704         1.017100
 H         2.845905        -0.236963         1.493544
 H         1.674263         1.922859        -1.410887
 H         1.958774         0.447527        -2.395611
 H         5.551463        -1.482781        -0.834314
 H         4.701865        -1.394630         0.726342
 H         3.129345        -1.220148        -2.041738
