19
Iteration:  2358charge 0 multiplicity 1
 C        -0.071181        -0.080267         0.209400
 C         1.366553        -0.002143        -0.152649
 C         2.506402         0.650497         0.698892
 C         3.257290         0.370095        -0.606877
 C         2.041287         0.929855        -1.292820
 O         4.692752         0.266138        -0.747510
 C         4.563175        -1.156326        -0.468567
 C         3.091180        -1.105567        -1.006814
 O         1.815283        -1.420413        -0.377046
 H        -0.305694        -0.285917         1.269892
 H        -0.477917         0.839834        -0.211708
 H        -0.693245        -0.780173        -0.456349
 H         2.317746         1.755990         0.812678
 H         2.889480         0.194666         1.644354
 H         1.911394         1.990481        -1.216918
 H         1.819747         0.511586        -2.297926
 H         5.299910        -1.867905        -0.961397
 H         4.541681        -1.319382         0.610680
 H         3.082665        -1.421512        -2.022437
