19
Iteration:   120
 C        -0.111151         0.055007         0.116433
 C         1.359622         0.003638        -0.084866
 C         2.572764         0.460942         0.787506
 C         3.217586         0.300610        -0.606826
 C         1.999027         0.918982        -1.277284
 O         4.629733         0.334697        -0.869005
 C         4.682990        -1.083821        -0.525361
 C         3.112599        -1.170895        -0.930028
 O         1.792125        -1.397918        -0.326245
 H        -0.252182        -0.659228         0.890443
 H        -0.563898         0.954425         0.472720
 H        -0.608580        -0.145701        -0.817105
 H         2.584939         1.528592         1.080157
 H         2.733104        -0.243593         1.589574
 H         1.863866         1.943161        -1.217332
 H         1.798330         0.509324        -2.258360
 H         5.399604        -1.631648        -1.146561
 H         4.836027        -1.303716         0.525873
 H         3.024341        -1.329330        -2.006174
