19
Iteration:  1181charge 0 multiplicity 1
 C        -0.179910         0.056119         0.326732
 C         1.336450         0.047361        -0.108588
 C         2.622145         0.474126         0.687448
 C         3.287002         0.347692        -0.674022
 C         1.883847         0.889035        -1.338346
 O         4.695013         0.239588        -0.762435
 C         4.593056        -1.107659        -0.322157
 C         3.235550        -1.105908        -1.028903
 O         1.787152        -1.396818        -0.554563
 H        -0.403745        -0.893040         0.744207
 H        -0.371902         0.846676         1.048058
 H        -0.722470         0.055060        -0.606152
 H         2.504815         1.555905         1.007712
 H         2.903997        -0.085084         1.637837
 H         1.679906         1.924979        -1.142548
 H         1.716208         0.529912        -2.335977
 H         5.317279        -1.805175        -0.739385
 H         4.597671        -1.194042         0.769937
 H         3.295429        -1.206543        -2.083715
