19
Iteration:   462charge 0 multiplicity 1
 C        -0.099474         0.038762         0.216299
 C         1.363267        -0.028770        -0.033129
 C         2.492674         0.435200         0.801969
 C         3.248995         0.405829        -0.610334
 C         2.117953         0.963056        -1.330256
 O         4.679411         0.300868        -0.828011
 C         4.564883        -1.175423        -0.509102
 C         3.103295        -1.079124        -0.999216
 O         1.800193        -1.436149        -0.418987
 H        -0.485262        -0.275745         1.225109
 H        -0.494126         1.046943        -0.195141
 H        -0.545940        -0.664126        -0.553168
 H         2.165134         1.499748         1.074695
 H         2.942000        -0.159469         1.655558
 H         1.821995         2.060787        -1.080657
 H         1.875524         0.471975        -2.254922
 H         5.212804        -1.795285        -1.128041
 H         4.790660        -1.235328         0.607180
 H         3.114739        -1.077860        -2.091091
