19
Iteration:  2853charge 0 multiplicity 1
 C        -0.131377        -0.037428         0.095368
 C         1.356478        -0.027586        -0.096338
 C         2.508764         0.503364         0.759520
 C         3.237682         0.427102        -0.705782
 C         1.929484         0.924842        -1.377953
 O         4.765893         0.283662        -0.841609
 C         4.583584        -1.091700        -0.470489
 C         3.154589        -1.109016        -0.920914
 O         1.847538        -1.398787        -0.208562
 H        -0.186821        -0.781899         0.835871
 H        -0.758989         0.890784         0.241198
 H        -0.690615        -0.360208        -0.794981
 H         2.470763         1.559775         1.147822
 H         2.769874        -0.157612         1.552487
 H         1.685585         1.946147        -1.180564
 H         1.708052         0.639510        -2.447240
 H         5.328014        -1.719791        -0.906817
 H         4.694103        -1.243921         0.656303
 H         3.069164        -1.579167        -1.956259
