19
Iteration:  4738
 C        -0.015022         0.032815         0.350350
 C         1.346691        -0.078155        -0.244834
 C         2.504755         0.676098         0.567678
 C         3.197485         0.351816        -0.738675
 C         1.942017         0.854345        -1.389828
 O         4.746921         0.290897        -0.720971
 C         4.516056        -1.067050        -0.250878
 C         3.150524        -1.155819        -0.977724
 O         1.830647        -1.501865        -0.440663
 H        -0.517800        -0.870602         0.061573
 H         0.121172        -0.087316         1.424020
 H        -0.649978         0.887535        -0.088689
 H         2.306686         1.795521         0.919222
 H         2.900644         0.297737         1.552539
 H         1.563273         1.819131        -0.983416
 H         1.739689         0.682474        -2.455149
 H         5.438007        -1.569380        -0.693661
 H         4.505915        -1.114091         0.876287
 H         3.211418        -1.417649        -2.084973
