19
Iteration:   400charge 0 multiplicity 1
 C        -0.069523         0.008835         0.255604
 C         1.384574        -0.029801        -0.188491
 C         2.582711         0.517341         0.716743
 C         3.244363         0.397308        -0.681958
 C         1.949552         0.854515        -1.313214
 O         4.754631         0.307145        -0.663477
 C         4.534219        -1.171461        -0.462738
 C         3.108231        -1.067717        -1.005010
 O         1.753677        -1.398940        -0.450649
 H        -0.223879        -0.891258         0.738061
 H        -0.270014         0.695625         1.040294
 H        -0.755058         0.262405        -0.567462
 H         2.500272         1.570978         0.914889
 H         3.017741         0.030520         1.583151
 H         1.574545         1.812145        -1.166965
 H         1.687160         0.639918        -2.326920
 H         5.248431        -1.805352        -0.981125
 H         4.694633        -1.343975         0.583773
 H         3.152823        -1.187764        -2.101832
