19
Iteration:  2738charge 0 multiplicity 1
 C        -0.120630        -0.102256         0.148118
 C         1.333479        -0.038607        -0.125847
 C         2.535471         0.679181         0.676144
 C         3.222536         0.404979        -0.654475
 C         1.991280         0.880993        -1.309199
 O         4.696868         0.261921        -0.816847
 C         4.614852        -1.142537        -0.356714
 C         3.104897        -1.115644        -0.925860
 O         1.841588        -1.407984        -0.386633
 H        -0.151026        -0.232762         1.278002
 H        -0.610984         0.768224        -0.193791
 H        -0.629839        -0.988258        -0.364416
 H         2.199830         1.719529         0.832179
 H         2.978024         0.152489         1.570402
 H         1.973663         2.006988        -1.053069
 H         1.558523         0.889566        -2.320058
 H         5.489910        -1.647550        -0.913819
 H         4.879584        -1.333197         0.696306
 H         3.082963        -1.370671        -1.961297
