19
Iteration:  3768
 C        -0.122134        -0.017333         0.444256
 C         1.291886        -0.039398        -0.256162
 C         2.542845         0.631382         0.528676
 C         3.220708         0.394155        -0.814523
 C         1.848856         0.801670        -1.496720
 O         4.831197         0.245816        -0.795909
 C         4.545742        -1.095615        -0.145646
 C         3.149094        -1.040434        -0.923822
 O         1.890084        -1.403668        -0.354578
 H        -0.869705        -0.135138        -0.421856
 H         0.051539        -0.943450         0.972723
 H        -0.155210         0.784739         1.125486
 H         2.319015         1.670677         0.784901
 H         2.822121         0.049428         1.389081
 H         1.516740         1.811034        -1.528041
 H         1.702096         0.408340        -2.532885
 H         5.344678        -1.731413        -0.613109
 H         4.486505        -1.171234         0.874781
 H         3.092267        -1.405540        -1.938247
