19
Iteration:  1953
 C        -0.084059         0.004362         0.268737
 C         1.368608        -0.040769        -0.137673
 C         2.550614         0.572961         0.686579
 C         3.245902         0.419851        -0.700240
 C         1.901107         0.912304        -1.349071
 O         4.724157         0.304962        -0.728244
 C         4.611918        -1.189464        -0.383491
 C         3.147183        -1.134696        -0.917898
 O         1.770972        -1.421090        -0.503335
 H        -0.153515        -0.697064         1.056754
 H        -0.175826         1.104752         0.623213
 H        -0.842217        -0.211240        -0.478425
 H         2.267236         1.592822         1.002768
 H         2.920737        -0.008362         1.591134
 H         1.683404         1.995466        -1.286855
 H         1.674541         0.547639        -2.315645
 H         5.370820        -1.691103        -0.978668
 H         4.697431        -1.489310         0.665463
 H         3.308104        -1.397495        -2.039334
