19
Iteration:  1591
 C        -0.083357        -0.051614         0.163376
 C         1.374460         0.062627        -0.119183
 C         2.509018         0.482872         0.783241
 C         3.243292         0.399563        -0.596745
 C         2.044910         0.880020        -1.344121
 O         4.712136         0.314437        -0.788708
 C         4.597573        -1.125957        -0.543886
 C         3.083776        -1.107991        -0.991629
 O         1.806009        -1.396248        -0.293997
 H        -0.480029        -1.069614         0.519497
 H        -0.372645         0.540811         0.947483
 H        -0.664029         0.289772        -0.706674
 H         2.381059         1.531506         0.923849
 H         2.692662        -0.211157         1.582503
 H         1.616649         1.933126        -1.189977
 H         1.975270         0.712484        -2.472208
 H         5.338203        -1.722267        -1.149647
 H         4.536927        -1.514741         0.479560
 H         3.022883        -1.228591        -2.076151
