19
Iteration:  4664
 C        -0.116074         0.052313         0.056616
 C         1.419350        -0.001123        -0.147461
 C         2.487704         0.684961         0.700844
 C         3.215250         0.316495        -0.678525
 C         1.948550         0.788158        -1.317651
 O         4.590640         0.315068        -0.824356
 C         4.548540        -1.158522        -0.441591
 C         3.203052        -1.154600        -0.898635
 O         1.990467        -1.463779        -0.191879
 H        -0.530869         0.203946        -0.933199
 H        -0.440880        -0.924104         0.412118
 H        -0.494454         0.795513         0.797542
 H         2.228932         1.800242         0.783659
 H         2.725440         0.263821         1.700332
 H         1.553507         1.774328        -1.059052
 H         1.835474         0.746230        -2.381301
 H         5.172840        -1.486817        -1.265962
 H         4.676978        -1.080142         0.618160
 H         3.074877        -1.628694        -1.946199
