19
Iteration:  1575
 C        -0.176901        -0.002692         0.139952
 C         1.390440        -0.019222        -0.117991
 C         2.489524         0.585619         0.792641
 C         3.254906         0.324459        -0.650066
 C         1.992346         0.963516        -1.202265
 O         4.649587         0.304757        -0.847666
 C         4.644926        -1.157332        -0.487435
 C         3.120363        -1.169273        -0.941454
 O         1.859595        -1.431875        -0.407385
 H        -0.289713        -1.039586         0.356325
 H        -0.418152         0.848514         0.962080
 H        -0.798989         0.265841        -0.766122
 H         2.465976         1.706753         1.055850
 H         2.815117        -0.020861         1.685375
 H         1.988669         2.016347        -1.061417
 H         1.689205         0.777987        -2.194468
 H         5.258964        -1.813401        -1.107227
 H         4.990962        -1.238133         0.560892
 H         3.131482        -1.350827        -2.069975
