19
Iteration:  3184charge 0 multiplicity 1
 C        -0.200802         0.019686         0.094184
 C         1.308224         0.101277        -0.159235
 C         2.505527         0.523255         0.640150
 C         3.179510         0.361293        -0.714581
 C         1.937257         0.749691        -1.326459
 O         4.651712         0.367772        -0.861491
 C         4.697285        -1.147507        -0.386826
 C         3.171009        -1.099661        -0.820073
 O         1.940914        -1.427547        -0.184146
 H        -0.485719        -0.985072        -0.361702
 H        -0.477237         0.412609         1.081901
 H        -0.686402         0.673602        -0.609956
 H         2.693465         1.428745         1.294756
 H         2.826524        -0.258700         1.339934
 H         1.568763         1.804147        -1.331717
 H         1.747356         0.445818        -2.387160
 H         5.284591        -1.780618        -1.153637
 H         5.189021        -1.084930         0.586320
 H         3.249861        -1.368884        -1.904170
