19
Iteration:  3995charge 0 multiplicity 1
 C        -0.110671        -0.035742         0.066312
 C         1.404437        -0.059600        -0.119758
 C         2.512811         0.711075         0.705437
 C         3.241671         0.337268        -0.623887
 C         1.974450         0.823545        -1.389326
 O         4.605282         0.336246        -0.899872
 C         4.669369        -1.064137        -0.421678
 C         3.125882        -1.136649        -0.835011
 O         1.838976        -1.488150        -0.213431
 H        -0.713933         0.260113        -0.825567
 H        -0.403698        -1.003497         0.431760
 H        -0.316217         0.677702         0.861042
 H         2.472465         1.798626         0.760005
 H         2.857284         0.351256         1.656764
 H         1.775988         1.876745        -1.131888
 H         1.885086         0.343474        -2.408632
 H         5.200269        -1.843755        -1.075523
 H         4.975310        -1.028235         0.616272
 H         2.911966        -1.490335        -1.910150
