19
Iteration:  3416
 C         0.032003        -0.038848         0.310683
 C         1.370903        -0.049856        -0.213385
 C         2.527035         0.672683         0.562253
 C         3.220125         0.280699        -0.759381
 C         1.878120         0.875021        -1.371797
 O         4.700234         0.355719        -0.774690
 C         4.677764        -1.034231        -0.224850
 C         3.115403        -1.175001        -0.937724
 O         1.757369        -1.492807        -0.402460
 H        -0.589170        -0.726090        -0.184249
 H        -0.156169        -0.264206         1.389760
 H        -0.421751         0.975227         0.087997
 H         2.328381         1.755045         0.646543
 H         2.835101         0.430880         1.580045
 H         1.627838         1.937816        -1.245346
 H         1.590763         0.499850        -2.369140
 H         5.391182        -1.684724        -0.685019
 H         4.574820        -1.106361         0.901232
 H         3.211104        -1.570822        -1.940140
