19
Iteration:  3386
 C        -0.145566        -0.085643         0.235632
 C         1.299353         0.012190        -0.192579
 C         2.526428         0.586380         0.683542
 C         3.198324         0.376549        -0.725425
 C         1.981439         0.810824        -1.543602
 O         4.665634         0.316994        -0.837236
 C         4.640587        -1.125519        -0.337783
 C         3.157327        -1.022131        -0.857426
 O         1.904558        -1.366245        -0.206277
 H        -0.822273        -0.359430        -0.572544
 H        -0.421928        -0.791774         0.898087
 H        -0.428819         0.891324         0.698245
 H         2.402112         1.589109         1.065823
 H         2.859256        -0.095094         1.519923
 H         1.763493         1.857675        -1.871352
 H         1.806194         0.098931        -2.254620
 H         5.249858        -1.856511        -0.932055
 H         4.905716        -1.380893         0.692285
 H         3.239160        -1.365319        -1.950781
