19
Iteration:  2413
 C        -0.126731         0.116457         0.188664
 C         1.337124        -0.016471        -0.149829
 C         2.472777         0.518655         0.732531
 C         3.231347         0.356073        -0.702421
 C         1.927281         0.865514        -1.359058
 O         4.716000         0.321654        -0.853983
 C         4.637335        -1.122509        -0.354625
 C         3.160322        -1.126207        -0.909119
 O         1.882067        -1.481345        -0.351194
 H        -0.654394        -0.796340         0.557086
 H        -0.416831         0.925709         0.836857
 H        -0.734184         0.278221        -0.769581
 H         2.538355         1.592622         1.009431
 H         2.852873        -0.095844         1.597251
 H         1.696515         1.892842        -1.067240
 H         1.733414         0.669855        -2.423296
 H         5.454902        -1.743746        -0.861325
 H         4.732228        -1.303715         0.698987
 H         3.127130        -1.541611        -1.908998
