19
Iteration:  4567charge 0 multiplicity 1
 C        -0.045873         0.002720         0.335838
 C         1.383485         0.011144        -0.224100
 C         2.556791         0.518263         0.643722
 C         3.193838         0.430845        -0.769202
 C         1.832719         0.794821        -1.508524
 O         4.718201         0.324043        -0.750941
 C         4.579961        -1.096259        -0.263878
 C         3.221490        -1.062890        -0.881237
 O         1.808707        -1.460757        -0.394435
 H        -0.773084        -0.718852        -0.125182
 H        -0.003790        -0.039877         1.465438
 H        -0.361863         1.110462         0.144201
 H         2.459282         1.470377         1.198846
 H         2.902905        -0.340051         1.199820
 H         1.587295         1.912363        -1.436603
 H         1.711863         0.475737        -2.570280
 H         5.192256        -1.929837        -0.793740
 H         4.531517        -1.234553         0.945671
 H         3.224635        -1.277472        -1.955465
