19
Iteration:   578charge 0 multiplicity 1
 C        -0.160451        -0.050075         0.229590
 C         1.327625         0.106078        -0.085307
 C         2.622221         0.543077         0.651491
 C         3.301516         0.333742        -0.688677
 C         1.916431         0.895178        -1.290786
 O         4.731730         0.356124        -0.732913
 C         4.527580        -1.172479        -0.440376
 C         3.098118        -1.116668        -0.987077
 O         1.861695        -1.441725        -0.400761
 H        -0.561590        -1.089607         0.619581
 H        -0.537146         0.842818         0.829149
 H        -0.626990         0.291750        -0.742575
 H         2.757273         1.575723         0.980389
 H         2.950483        -0.134428         1.457130
 H         1.768206         2.005880        -1.058628
 H         1.674123         0.607064        -2.312883
 H         5.242341        -1.838486        -1.070634
 H         4.727364        -1.513776         0.617217
 H         3.086071        -1.417515        -2.101945
