19
Iteration:  1569
 C        -0.174879         0.013546         0.110551
 C         1.389554         0.001436        -0.082324
 C         2.513859         0.545115         0.770104
 C         3.229103         0.352891        -0.660940
 C         1.967810         0.958634        -1.173487
 O         4.637579         0.305367        -0.877250
 C         4.697220        -1.177874        -0.426138
 C         3.151341        -1.153672        -0.934032
 O         1.840645        -1.430102        -0.422020
 H        -0.477145        -1.003573         0.601296
 H        -0.345479         0.674050         0.842070
 H        -0.830652         0.270886        -0.732025
 H         2.482636         1.593828         0.793330
 H         2.812709        -0.051974         1.611064
 H         1.884635         2.075023        -1.001377
 H         1.642588         0.840402        -2.266824
 H         5.144641        -1.879665        -1.159385
 H         5.039339        -1.358229         0.593667
 H         3.275700        -1.224713        -1.996940
