19
Iteration:  3262
 C        -0.083620        -0.029062         0.422062
 C         1.367127        -0.041711        -0.247836
 C         2.573147         0.667953         0.565018
 C         3.248115         0.380365        -0.805279
 C         1.850814         0.723809        -1.529742
 O         4.736798         0.348579        -0.722879
 C         4.554475        -1.092602        -0.215698
 C         3.213144        -1.135847        -0.929999
 O         1.802845        -1.344247        -0.341037
 H        -0.844934        -0.022658        -0.346666
 H        -0.116076        -1.172045         0.654790
 H        -0.473692         0.513920         1.241478
 H         2.495300         1.796089         0.542972
 H         2.842732         0.024342         1.396975
 H         1.508760         1.742919        -1.571990
 H         1.699070         0.256534        -2.573328
 H         5.383706        -1.650653        -0.632326
 H         4.516574        -1.242625         0.915269
 H         3.248020        -1.558108        -1.964619
