19
Iteration:  3935
 C        -0.030252        -0.017557         0.365449
 C         1.393180        -0.132454        -0.121463
 C         2.514922         0.712380         0.576686
 C         3.229119         0.387697        -0.698266
 C         1.965196         0.750228        -1.455248
 O         4.675569         0.341567        -0.756062
 C         4.593121        -1.050881        -0.250927
 C         3.124540        -1.134268        -0.911857
 O         1.760817        -1.469254        -0.528692
 H        -0.688430        -0.287066        -0.454948
 H        -0.154481        -0.767624         1.305258
 H        -0.132001         1.002018         0.905350
 H         2.341664         1.828618         0.499629
 H         2.953024         0.393371         1.593126
 H         1.720810         1.834527        -1.538521
 H         1.733676         0.513878        -2.459565
 H         5.195970        -1.861042        -0.581424
 H         4.671099        -0.904329         0.830650
 H         3.463272        -1.472393        -1.861097
