19
Iteration:    61charge 0 multiplicity 1
 C        -0.022374         0.039769         0.344367
 C         1.401737        -0.050016        -0.098435
 C         2.448588         0.501853         0.712348
 C         3.241118         0.334673        -0.714512
 C         2.031989         0.925719        -1.377137
 O         4.688808         0.363982        -0.751637
 C         4.464837        -1.161633        -0.411597
 C         3.092473        -1.073567        -1.066816
 O         1.915331        -1.446972        -0.450272
 H        -0.060999         0.027450         1.469103
 H        -0.518899         0.976475        -0.090138
 H        -0.502551        -0.969032         0.195677
 H         2.412429         1.527112         1.130547
 H         2.525408        -0.217829         1.564960
 H         1.670124         1.981155        -1.090642
 H         1.876119         0.811378        -2.484637
 H         5.165516        -1.822177        -0.931596
 H         4.273175        -1.383323         0.677355
 H         3.167936        -1.380427        -2.133100
