19
Iteration:   457charge 0 multiplicity 1
 C        -0.076912         0.022130         0.215404
 C         1.346739        -0.032979        -0.090432
 C         2.476611         0.462686         0.807923
 C         3.283799         0.426409        -0.574665
 C         2.101154         0.984257        -1.318410
 O         4.704437         0.311391        -0.825252
 C         4.521148        -1.189070        -0.503688
 C         3.103257        -1.129188        -0.999188
 O         1.787711        -1.423691        -0.395190
 H        -0.514761        -0.396341         1.140655
 H        -0.370553         0.984571        -0.102828
 H        -0.461605        -0.688743        -0.491327
 H         2.258596         1.467438         1.066619
 H         2.934394        -0.135381         1.560032
 H         1.802827         1.987277        -1.142943
 H         1.857494         0.508559        -2.309903
 H         5.142075        -1.706939        -1.270504
 H         4.899104        -1.201352         0.493632
 H         3.077403        -1.130125        -2.113916
