19
Iteration:  2288charge 0 multiplicity 1
 C         0.000004         0.038275         0.246830
 C         1.381595        -0.061610        -0.218808
 C         2.498547         0.507922         0.685908
 C         3.249696         0.328916        -0.685179
 C         1.963386         0.936206        -1.269210
 O         4.708816         0.362177        -0.794658
 C         4.549827        -1.132800        -0.313746
 C         3.137714        -1.197167        -0.917944
 O         1.754865        -1.421386        -0.492481
 H         0.006426        -0.292036         1.303204
 H        -0.397383         1.096959         0.093947
 H        -0.770097        -0.512735        -0.271226
 H         2.394776         1.528727         0.920423
 H         2.803150        -0.147772         1.457785
 H         1.826166         2.064107        -1.107089
 H         1.850128         0.708268        -2.343351
 H         5.401187        -1.529291        -0.803284
 H         4.547081        -1.215969         0.794783
 H         3.117819        -1.370439        -2.048647
