19
Iteration:  3605charge 0 multiplicity 1
 C         0.028038         0.040877         0.375730
 C         1.349726        -0.133797        -0.156178
 C         2.534832         0.621114         0.587499
 C         3.208846         0.385218        -0.705188
 C         1.932102         0.777476        -1.460794
 O         4.662003         0.324081        -0.753183
 C         4.500697        -1.038579        -0.262341
 C         3.172238        -1.138612        -1.018523
 O         1.849782        -1.435173        -0.383868
 H        -0.724087        -0.183306        -0.462609
 H        -0.171469        -0.581300         1.212789
 H        -0.169960         1.052233         0.626789
 H         2.077217         1.636878         0.696415
 H         2.983631         0.184639         1.490392
 H         1.618852         1.795804        -1.552102
 H         1.866900         0.332769        -2.474135
 H         5.312428        -1.778672        -0.672565
 H         4.497037        -0.920496         0.814084
 H         3.372058        -1.504731        -2.067245
