19
Iteration:  2752charge 0 multiplicity 1
 C        -0.036954        -0.104032         0.238344
 C         1.428894        -0.068790        -0.154222
 C         2.479156         0.652515         0.723162
 C         3.272892         0.380127        -0.686649
 C         1.915938         0.941767        -1.364722
 O         4.753504         0.293883        -0.764085
 C         4.548029        -1.154305        -0.377339
 C         3.161255        -1.087082        -0.921165
 O         1.761656        -1.422913        -0.449802
 H        -0.249349        -0.028866         1.344195
 H        -0.644616         0.727831        -0.226454
 H        -0.447195        -1.021437        -0.084546
 H         2.292358         1.702556         0.715430
 H         2.874736         0.540381         1.709845
 H         1.412614         1.939381        -1.165797
 H         1.912374         0.473329        -2.360276
 H         5.112250        -1.928238        -1.001429
 H         4.557402        -1.245804         0.723917
 H         3.279258        -1.394714        -1.981672
