19
Iteration:   349
 C        -0.102950         0.034983         0.293073
 C         1.330960         0.016749        -0.164787
 C         2.610173         0.394777         0.653280
 C         3.252420         0.309075        -0.712649
 C         1.971692         0.953054        -1.250801
 O         4.698208         0.316878        -0.808992
 C         4.677168        -1.064902        -0.327551
 C         3.099122        -1.174675        -0.944826
 O         1.720870        -1.392266        -0.512989
 H        -0.354173        -0.785955         1.085680
 H        -0.390838         0.969136         0.749639
 H        -0.708619         0.103812        -0.605654
 H         2.413332         1.332159         1.090872
 H         2.709486        -0.378121         1.384062
 H         1.893673         2.023600        -0.981493
 H         1.827873         0.788561        -2.416558
 H         5.615737        -1.588852        -0.692169
 H         4.592092        -1.114748         0.752253
 H         3.199758        -1.350642        -2.030165
