19
Iteration:  4159charge 0 multiplicity 1
 C        -0.158529        -0.057320         0.108667
 C         1.353003         0.002738        -0.113723
 C         2.492063         0.601114         0.700943
 C         3.254774         0.430164        -0.713363
 C         1.945311         0.748685        -1.429409
 O         4.716935         0.291457        -0.866008
 C         4.730323        -1.094106        -0.445425
 C         3.058954        -1.092422        -0.826107
 O         1.850270        -1.375046        -0.173678
 H        -0.631531        -0.420217        -0.892961
 H        -0.384032        -0.725065         1.021417
 H        -0.489879         1.025050         0.216051
 H         2.283254         1.670701         1.045135
 H         2.829119         0.073372         1.654117
 H         1.556226         1.832078        -1.248934
 H         1.692880         0.306372        -2.412177
 H         5.479865        -1.657568        -1.129769
 H         4.911919        -1.299242         0.575601
 H         3.137797        -1.507994        -1.825284
