19
Iteration:  1810
 C        -0.093565         0.050305         0.306523
 C         1.381448        -0.030237        -0.162690
 C         2.579867         0.446065         0.690963
 C         3.254280         0.336260        -0.715762
 C         1.911988         0.939892        -1.403397
 O         4.700349         0.313451        -0.783708
 C         4.573750        -1.098952        -0.238038
 C         3.126637        -1.075865        -0.989607
 O         1.850784        -1.418313        -0.511870
 H        -0.166549        -0.995403         0.844679
 H        -0.270007         0.901643         1.100634
 H        -0.979349         0.072580        -0.299087
 H         2.397920         1.445915         1.157926
 H         2.861683        -0.354116         1.416838
 H         1.832531         2.040487        -1.321529
 H         1.510787         0.632094        -2.382497
 H         5.260182        -1.871168        -0.660511
 H         4.604416        -1.242115         0.838624
 H         2.891982        -1.335744        -2.089601
