19
Iteration:  1262charge 0 multiplicity 1
 C        -0.018789         0.074073         0.134065
 C         1.328685        -0.019456        -0.157006
 C         2.557480         0.467448         0.790331
 C         3.232895         0.406871        -0.583332
 C         1.954783         0.833261        -1.272767
 O         4.637612         0.274678        -0.737302
 C         4.684694        -1.129828        -0.529449
 C         3.100940        -1.076619        -0.926986
 O         1.769715        -1.414237        -0.419486
 H        -0.214745         0.062576         1.216860
 H        -0.359890         1.001736        -0.235290
 H        -0.651399        -0.611518        -0.403953
 H         2.467808         1.472972         1.121962
 H         3.076015        -0.180235         1.452724
 H         1.648222         1.939917        -1.265478
 H         1.681324         0.677421        -2.359225
 H         5.277495        -1.724016        -1.260668
 H         4.861923        -1.416268         0.530752
 H         3.173026        -1.238011        -2.000419
