19
Iteration:  2398charge 0 multiplicity 1
 C        -0.161770         0.009609         0.071005
 C         1.379500        -0.004788        -0.162503
 C         2.529979         0.476618         0.718645
 C         3.265536         0.351077        -0.706716
 C         1.920016         0.867242        -1.315104
 O         4.801525         0.279107        -0.813894
 C         4.655934        -1.089412        -0.454272
 C         3.129501        -1.130251        -0.901218
 O         1.761220        -1.349458        -0.231834
 H        -0.278655        -0.749576         0.782907
 H        -0.269845         0.883071         0.817686
 H        -0.767325        -0.092393        -0.827284
 H         2.212536         1.414519         1.063990
 H         2.728556        -0.172184         1.486938
 H         1.707881         1.935601        -1.157453
 H         1.520590         0.614220        -2.341911
 H         5.271955        -1.745866        -0.949336
 H         4.746323        -1.037207         0.666754
 H         3.074424        -1.262686        -2.064895
