19
Iteration:   666
 C         0.029796        -0.060619         0.238866
 C         1.428255         0.035921        -0.213851
 C         2.594735         0.467910         0.745684
 C         3.211899         0.438756        -0.687630
 C         1.954887         0.935901        -1.364288
 O         4.663803         0.332460        -0.659972
 C         4.487303        -1.178576        -0.446413
 C         3.068056        -1.096175        -0.991347
 O         1.802402        -1.402431        -0.422071
 H        -0.031746        -0.185574         1.442564
 H        -0.583187         0.952053         0.131685
 H        -0.504635        -0.956065        -0.101619
 H         2.543565         1.530500         0.950943
 H         3.103374        -0.160929         1.489605
 H         1.629796         2.025451        -1.220145
 H         1.801355         0.591192        -2.390346
 H         5.144629        -1.768797        -1.174279
 H         4.594487        -1.623238         0.662108
 H         3.111133        -1.374091        -2.108271
