19
Iteration:  2751
 C        -0.041550        -0.105114         0.225327
 C         1.426546        -0.069539        -0.152372
 C         2.474541         0.652584         0.726018
 C         3.275005         0.383760        -0.685498
 C         1.918665         0.940765        -1.359775
 O         4.751031         0.291495        -0.769470
 C         4.548000        -1.150942        -0.371730
 C         3.167444        -1.092906        -0.924408
 O         1.758512        -1.423509        -0.445535
 H        -0.249292        -0.024548         1.352165
 H        -0.618750         0.738293        -0.191585
 H        -0.445768        -1.053798        -0.090074
 H         2.285149         1.702616         0.696048
 H         2.928879         0.579084         1.702300
 H         1.435308         1.968831        -1.127439
 H         1.904491         0.492359        -2.373849
 H         5.110915        -1.921034        -1.036067
 H         4.577220        -1.255549         0.723463
 H         3.267518        -1.395510        -1.965861
