19
Iteration:  1299charge 0 multiplicity 1
 C        -0.138115         0.016331         0.273702
 C         1.379937         0.057060        -0.209823
 C         2.480784         0.428921         0.692051
 C         3.278618         0.303198        -0.701907
 C         1.943520         0.952067        -1.246155
 O         4.724235         0.264131        -0.784139
 C         4.596014        -1.094915        -0.410304
 C         3.155193        -1.098522        -1.009953
 O         1.813305        -1.423451        -0.430686
 H        -0.194375         0.004435         1.375968
 H        -0.518603         1.150687         0.051148
 H        -0.697977        -0.794664        -0.206537
 H         2.435285         1.482226         1.048568
 H         2.741789        -0.284319         1.555696
 H         1.851086         1.943035        -0.895277
 H         1.747264         0.748163        -2.267786
 H         5.483950        -1.629075        -0.692205
 H         4.591216        -1.011820         0.680439
 H         3.177936        -1.410399        -2.130217
