19
Iteration:  1411
 C        -0.073384         0.081612         0.206337
 C         1.341955         0.084311        -0.110875
 C         2.484139         0.405631         0.811276
 C         3.224482         0.349507        -0.598599
 C         1.953932         0.822013        -1.286086
 O         4.638618         0.315379        -0.881982
 C         4.640869        -1.092584        -0.453364
 C         3.161761        -1.196515        -0.926649
 O         1.851481        -1.382965        -0.428258
 H        -0.533911        -0.843144         0.509585
 H        -0.481919         1.026607         0.569487
 H        -0.628218         0.227990        -0.805154
 H         2.632695         1.533988         1.078899
 H         2.857064        -0.245485         1.662494
 H         1.900591         1.903514        -1.194113
 H         1.701211         0.445692        -2.231950
 H         5.435661        -1.497799        -1.107227
 H         4.927674        -1.192669         0.579937
 H         3.109298        -1.303826        -2.059388
