19
Iteration:  1625charge 0 multiplicity 1
 C        -0.134555         0.004407         0.288145
 C         1.393084         0.035155        -0.121833
 C         2.525393         0.559742         0.662217
 C         3.220039         0.375134        -0.668804
 C         1.873508         0.906645        -1.334799
 O         4.730970         0.275767        -0.667186
 C         4.632092        -1.151741        -0.446165
 C         3.166658        -1.133268        -1.014221
 O         1.828979        -1.442905        -0.470947
 H        -0.286917        -0.969026         0.815580
 H        -0.241448         0.929305         0.855401
 H        -0.765787         0.077200        -0.569677
 H         2.476824         1.603278         0.947772
 H         2.781168         0.103654         1.597381
 H         1.618612         1.974641        -0.940942
 H         1.727641         0.687100        -2.476591
 H         5.347032        -1.716773        -1.152857
 H         4.738556        -1.534712         0.602130
 H         3.101307        -1.212819        -2.100841
