19
Iteration:  4700charge 0 multiplicity 1
 C        -0.169784         0.065746         0.221990
 C         1.353618         0.018730        -0.231410
 C         2.569563         0.501509         0.678866
 C         3.280446         0.393339        -0.643967
 C         1.925883         0.730832        -1.416091
 O         4.733724         0.338292        -0.858300
 C         4.648802        -0.987710        -0.344146
 C         3.169909        -1.119941        -0.859438
 O         1.740333        -1.415926        -0.313606
 H        -0.742757        -0.420307        -0.647477
 H        -0.173349        -0.772509         0.988550
 H        -0.735519         0.944225         0.483621
 H         2.545250         1.457829         1.083671
 H         2.768209        -0.287125         1.415243
 H         1.653356         1.796393        -1.323769
 H         1.947517         0.294680        -2.439802
 H         5.285392        -1.747883        -0.777579
 H         4.853233        -1.288971         0.678871
 H         3.241008        -1.531869        -1.839582
