19
Iteration:  2219charge 0 multiplicity 1
 C        -0.132381        -0.002385         0.092454
 C         1.321135         0.019245        -0.040701
 C         2.565836         0.613777         0.705371
 C         3.194640         0.364055        -0.655968
 C         2.028509         0.963666        -1.400009
 O         4.638819         0.289826        -0.719946
 C         4.618751        -1.196153        -0.503726
 C         3.175379        -1.132048        -0.893258
 O         1.880544        -1.463456        -0.331186
 H        -0.547908        -1.007723         0.491038
 H        -0.231292         0.699207         0.861210
 H        -0.755495         0.498718        -0.623374
 H         2.231245         1.668018         0.916739
 H         2.828378         0.017694         1.618646
 H         1.720855         1.998259        -1.178610
 H         1.769725         0.609289        -2.424277
 H         5.243606        -1.760240        -1.278052
 H         4.801740        -1.603557         0.495212
 H         2.940602        -1.480906        -1.962722
