19
Iteration:  3604charge 0 multiplicity 1
 C         0.026680         0.038467         0.379885
 C         1.347612        -0.131202        -0.169361
 C         2.552828         0.616758         0.596027
 C         3.197520         0.381039        -0.707229
 C         1.942624         0.771786        -1.464665
 O         4.658993         0.323404        -0.753219
 C         4.499618        -1.030750        -0.256249
 C         3.167304        -1.132570        -1.016520
 O         1.847007        -1.435133        -0.384826
 H        -0.732967        -0.174263        -0.471390
 H        -0.169343        -0.596856         1.195204
 H        -0.159533         1.080285         0.651633
 H         2.086649         1.607428         0.685149
 H         3.020757         0.159292         1.478106
 H         1.575282         1.797589        -1.561054
 H         1.892678         0.314865        -2.464218
 H         5.319442        -1.749894        -0.650928
 H         4.492460        -0.909353         0.800974
 H         3.337167        -1.483164        -2.055909
