19
Iteration:   671charge 0 multiplicity 1
 C         0.002199        -0.085892         0.283296
 C         1.388717         0.002840        -0.201336
 C         2.574630         0.538250         0.732943
 C         3.196417         0.467610        -0.732537
 C         2.017218         0.954791        -1.370461
 O         4.741422         0.322599        -0.663810
 C         4.440438        -1.203172        -0.414162
 C         3.061284        -1.082541        -1.023032
 O         1.810889        -1.417260        -0.415018
 H         0.048920        -0.155872         1.298461
 H        -0.626602         0.743809         0.163292
 H        -0.637193        -0.907014        -0.063451
 H         2.371579         1.552783         1.167471
 H         3.015953        -0.247221         1.352864
 H         1.706406         1.930349        -1.136458
 H         1.731225         0.610685        -2.409861
 H         5.046960        -1.687624        -1.112442
 H         4.723396        -1.683356         0.497807
 H         3.181766        -1.315279        -2.051275
