19
Iteration:  3284charge 0 multiplicity 1
 C        -0.034724        -0.030006         0.338143
 C         1.357974        -0.001131        -0.108507
 C         2.467485         0.756218         0.516725
 C         3.218933         0.330082        -0.763139
 C         1.933530         0.799030        -1.449612
 O         4.634288         0.286748        -0.766777
 C         4.573229        -1.014927        -0.203757
 C         3.144471        -1.152553        -0.916452
 O         1.873846        -1.530512        -0.401039
 H        -0.766242         0.427701        -0.310394
 H        -0.157675        -1.138243         0.693406
 H        -0.059480         0.565752         1.230660
 H         2.334069         1.886993         0.351705
 H         2.936863         0.287570         1.381851
 H         2.003290         1.855465        -1.625021
 H         1.662463         0.438553        -2.518751
 H         5.256173        -1.613254        -0.779736
 H         4.793239        -1.097892         0.937952
 H         3.499319        -1.534578        -1.895394
