19
Iteration:  2909charge 0 multiplicity 1
 C        -0.142636         0.022501         0.265785
 C         1.306803        -0.049176        -0.276463
 C         2.478045         0.525009         0.672102
 C         3.289200         0.429617        -0.651348
 C         1.873143         0.768839        -1.405373
 O         4.799703         0.299452        -0.776703
 C         4.649002        -1.159592        -0.386855
 C         3.148289        -1.015878        -0.927155
 O         1.838137        -1.362284        -0.301076
 H        -0.531263        -0.931247         0.634481
 H        -0.106598         0.654622         1.212067
 H        -0.921521         0.287694        -0.518091
 H         2.400363         1.574383         0.958267
 H         2.566385        -0.308818         1.413078
 H         1.610488         1.818274        -1.551647
 H         1.663874         0.345452        -2.388575
 H         5.351842        -1.755480        -0.958230
 H         4.847268        -1.144410         0.707860
 H         3.265982        -1.363542        -2.009914
