19
Iteration:  3845
 C        -0.152888         0.092632         0.066758
 C         1.348960         0.007481        -0.165351
 C         2.464448         0.615516         0.743160
 C         3.247422         0.381444        -0.598866
 C         1.924229         0.762256        -1.348884
 O         4.697964         0.350886        -0.895900
 C         4.630386        -1.124459        -0.525026
 C         3.181744        -1.143817        -0.810812
 O         1.905909        -1.476515        -0.185929
 H        -0.535642        -0.865982        -0.424208
 H        -0.219983        -0.018329         1.167270
 H        -0.559270         0.919910        -0.483819
 H         2.315691         1.637341         1.086619
 H         2.635723        -0.086031         1.578592
 H         1.540836         1.780340        -1.383924
 H         1.696371         0.334728        -2.337671
 H         5.318808        -1.789226        -1.123281
 H         4.947324        -1.008478         0.461784
 H         3.040262        -1.561494        -1.815323
