19
Iteration:  4869charge 0 multiplicity 1
 C        -0.091499        -0.017605         0.233587
 C         1.282374         0.022620        -0.218773
 C         2.526497         0.594164         0.614731
 C         3.184638         0.325550        -0.705039
 C         1.936335         0.906240        -1.485254
 O         4.711262         0.294593        -0.776578
 C         4.689110        -1.123123        -0.288832
 C         3.159498        -1.133034        -0.855881
 O         1.820707        -1.421753        -0.305767
 H        -0.681565         0.208910        -0.641211
 H        -0.351597        -1.014897         0.662029
 H        -0.199746         0.698236         1.117315
 H         2.229253         1.709569         0.569337
 H         2.991662         0.051332         1.476218
 H         1.474978         1.925768        -1.392359
 H         1.730040         0.620392        -2.547519
 H         5.426708        -1.806011        -0.819597
 H         4.814856        -1.088721         0.813169
 H         3.378632        -1.743959        -1.711434
