19
Iteration:  4160charge 0 multiplicity 1
 C        -0.159272        -0.054038         0.103462
 C         1.343271         0.001668        -0.118740
 C         2.484708         0.598820         0.700285
 C         3.259922         0.429691        -0.711126
 C         1.939139         0.741741        -1.423777
 O         4.722543         0.289740        -0.870353
 C         4.736134        -1.094612        -0.445306
 C         3.062655        -1.083243        -0.826476
 O         1.845725        -1.371276        -0.168052
 H        -0.590252        -0.401111        -0.874234
 H        -0.363135        -0.708174         0.995906
 H        -0.476776         1.008017         0.256779
 H         2.301074         1.613764         1.059817
 H         2.821960         0.083028         1.624962
 H         1.544224         1.821712        -1.250188
 H         1.701052         0.298217        -2.409533
 H         5.471832        -1.636215        -1.126190
 H         4.919057        -1.316455         0.556545
 H         3.151029        -1.511859        -1.812139
