19
Iteration:  1528charge 0 multiplicity 1
 C        -0.047626         0.038914         0.293656
 C         1.365872         0.029968        -0.131872
 C         2.554723         0.373935         0.746721
 C         3.240203         0.328676        -0.666798
 C         2.007975         0.884690        -1.326798
 O         4.657144         0.372317        -0.772483
 C         4.499558        -1.136784        -0.404237
 C         3.112437        -1.056661        -1.035837
 O         1.838800        -1.426841        -0.455096
 H        -0.096913        -0.608031         1.166160
 H        -0.292583         1.240794         0.257201
 H        -0.653261        -0.357943        -0.498266
 H         2.578940         1.430932         1.076482
 H         2.789526        -0.277509         1.590087
 H         1.657400         1.971901        -1.243827
 H         1.773649         0.558047        -2.408534
 H         5.436208        -1.606332        -0.850924
 H         4.503498        -1.261150         0.700366
 H         3.138194        -1.347588        -2.105850
