19
Iteration:  4637
 C        -0.193287        -0.067437         0.153101
 C         1.329801        -0.027213        -0.132616
 C         2.540490         0.606675         0.730123
 C         3.223497         0.394950        -0.715200
 C         1.959589         0.789717        -1.494133
 O         4.781331         0.331379        -0.820650
 C         4.630930        -1.108964        -0.426367
 C         3.176035        -1.088316        -0.859371
 O         1.794019        -1.363512        -0.181171
 H        -0.710994         0.153532        -0.809143
 H        -0.583767        -1.050361         0.492442
 H        -0.471306         0.651696         0.898500
 H         2.481996         1.597307         1.190628
 H         2.856644        -0.205696         1.391396
 H         1.720042         1.876844        -1.539818
 H         1.816849         0.373064        -2.535413
 H         5.264087        -1.660409        -1.181724
 H         4.932469        -1.274769         0.653115
 H         3.055672        -1.510520        -1.847478
