19
Iteration:  1095charge 0 multiplicity 1
 C        -0.135734        -0.053583         0.131143
 C         1.395532         0.009587        -0.148111
 C         2.516987         0.592723         0.763837
 C         3.286892         0.369071        -0.582141
 C         1.840858         0.991909        -1.212206
 O         4.849962         0.226414        -0.740282
 C         4.653990        -1.224112        -0.524636
 C         3.056448        -1.091689        -1.019491
 O         1.798215        -1.393673        -0.398423
 H        -0.370638        -0.171994         1.204247
 H        -0.585078         0.937778        -0.061005
 H        -0.783310        -0.798219        -0.545697
 H         2.393179         1.665776         0.939899
 H         2.843147        -0.143163         1.544476
 H         1.467694         2.115620        -1.047386
 H         1.725288         0.890020        -2.332842
 H         5.354102        -1.852207        -1.121508
 H         4.820266        -1.447298         0.586744
 H         2.961664        -1.226728        -2.103070
