19
Iteration:  1816charge 0 multiplicity 1
 C        -0.078484         0.030807         0.354888
 C         1.337218        -0.044691        -0.220924
 C         2.580521         0.482476         0.659304
 C         3.250178         0.328524        -0.713211
 C         1.967319         1.000915        -1.365083
 O         4.668705         0.308573        -0.744901
 C         4.563864        -1.131064        -0.294158
 C         3.098488        -1.088632        -0.996510
 O         1.862593        -1.448156        -0.495215
 H        -0.238635        -0.874101         0.904049
 H        -0.217689         0.854569         0.963310
 H        -0.944240         0.046613        -0.375175
 H         2.363534         1.513691         0.964180
 H         2.906669        -0.152481         1.480672
 H         1.817079         2.070844        -1.231145
 H         1.565598         0.602761        -2.307810
 H         5.317762        -1.781815        -0.736574
 H         4.574139        -1.052891         0.817706
 H         3.296532        -1.511356        -1.995204
