19
Iteration:  4821charge 0 multiplicity 1
 C        -0.127887         0.059997         0.050368
 C         1.365205        -0.060099        -0.105309
 C         2.467395         0.572415         0.789801
 C         3.220350         0.346724        -0.680082
 C         1.900198         0.869186        -1.439053
 O         4.685821         0.275121        -0.864384
 C         4.640655        -1.091938        -0.421846
 C         3.166484        -1.102185        -0.856502
 O         1.914087        -1.453234        -0.213820
 H        -0.728116        -0.365436        -0.780373
 H        -0.458012        -0.359032         0.998195
 H        -0.302712         1.108061         0.236672
 H         2.368615         1.518962         1.110005
 H         2.605204        -0.216054         1.447269
 H         1.697382         1.960002        -1.411256
 H         1.655920         0.541664        -2.447334
 H         5.432649        -1.569565        -0.967573
 H         4.858234        -1.061272         0.645235
 H         3.255680        -1.417776        -1.881080
