19
Iteration:  1942charge 0 multiplicity 1
 C        -0.096659         0.007608         0.271847
 C         1.350194         0.004417        -0.151901
 C         2.478297         0.462191         0.748202
 C         3.303173         0.312008        -0.674439
 C         1.904515         0.821984        -1.379197
 O         4.785815         0.279705        -0.764471
 C         4.650296        -1.090368        -0.400500
 C         3.125884        -1.047785        -0.961509
 O         1.761763        -1.341751        -0.452724
 H        -0.437394        -0.459114         1.162063
 H        -0.519980         1.096135         0.465912
 H        -0.622159        -0.344607        -0.609322
 H         2.397627         1.531724         1.025779
 H         2.929756        -0.166271         1.588005
 H         1.637898         1.845445        -1.062589
 H         1.732557         0.621867        -2.392786
 H         5.194399        -1.815723        -0.984597
 H         4.817819        -1.157562         0.681772
 H         3.092373        -1.376564        -2.090075
