19
Iteration:  3943
 C        -0.064992         0.023765         0.374333
 C         1.412787        -0.085033        -0.165663
 C         2.547424         0.706524         0.538913
 C         3.219957         0.330335        -0.723544
 C         1.893869         0.767358        -1.414230
 O         4.666792         0.342690        -0.750746
 C         4.625008        -1.047251        -0.252206
 C         3.167712        -1.149925        -0.860656
 O         1.794887        -1.464051        -0.506387
 H        -0.746066        -0.029701        -0.490124
 H        -0.136676        -0.950546         0.898079
 H        -0.265012         1.009737         0.801417
 H         2.189985         1.706161         0.675913
 H         2.981683         0.308663         1.478546
 H         1.529604         1.848079        -1.301459
 H         1.820684         0.206988        -2.357350
 H         5.400086        -1.822619        -0.687289
 H         4.573296        -1.118039         0.875219
 H         3.213270        -1.344121        -2.004433
