19
Iteration:  4401
 C         0.007538        -0.036691         0.294856
 C         1.379825        -0.073858        -0.135728
 C         2.493634         0.721526         0.565715
 C         3.265177         0.342951        -0.786146
 C         1.873111         0.827404        -1.374507
 O         4.712138         0.337942        -0.757257
 C         4.547231        -1.135154        -0.261020
 C         3.153662        -1.143692        -0.907946
 O         1.803868        -1.411446        -0.431170
 H        -0.577395        -0.102452        -0.600535
 H        -0.308131        -0.840731         0.947108
 H         0.023620         0.794845         0.983861
 H         2.270152         1.747550         0.484496
 H         2.991425         0.559671         1.485398
 H         1.548233         1.823027        -1.453444
 H         1.541096         0.168841        -2.198556
 H         5.328656        -1.724239        -0.658984
 H         4.617638        -1.243108         0.843833
 H         3.235380        -1.612653        -1.823118
