19
Iteration:  4978
 C        -0.100465         0.032704         0.069811
 C         1.400969        -0.121509        -0.186786
 C         2.537526         0.621981         0.748869
 C         3.253005         0.328409        -0.599657
 C         2.010037         0.868770        -1.390710
 O         4.621405         0.343761        -0.848494
 C         4.643275        -1.094395        -0.408487
 C         3.136335        -1.113377        -0.801368
 O         1.775536        -1.442706        -0.317558
 H        -0.722571        -0.833992        -0.300279
 H        -0.289006         0.125051         1.218152
 H        -0.530433         0.995333        -0.294637
 H         2.367346         1.734088         0.827869
 H         2.722886         0.148519         1.750642
 H         1.493045         1.826762        -1.265640
 H         2.074558         0.326846        -2.395989
 H         5.373195        -1.652947        -1.011329
 H         5.057964        -1.460310         0.536623
 H         3.101093        -1.474241        -1.844848
