19
Iteration:  3700charge 0 multiplicity 1
 C        -0.199784         0.069893         0.124183
 C         1.378788        -0.091039        -0.097740
 C         2.490471         0.562988         0.708150
 C         3.208054         0.399971        -0.716582
 C         1.841245         0.804028        -1.368453
 O         4.788344         0.318239        -0.919792
 C         4.689706        -1.116819        -0.358645
 C         3.169656        -1.106529        -0.866821
 O         1.879709        -1.427873        -0.226692
 H        -0.861512        -0.595354        -0.578956
 H        -0.463317        -0.148308         1.147094
 H        -0.577434         1.104431        -0.149757
 H         2.400106         1.593541         1.020668
 H         2.930812        -0.063073         1.502175
 H         1.537361         1.895405        -1.291740
 H         1.636768         0.642148        -2.451826
 H         5.187398        -1.826767        -1.019746
 H         5.033087        -1.090376         0.685165
 H         3.126512        -1.605810        -1.862792
