19
Iteration:   501charge 0 multiplicity 1
 C        -0.040600         0.089862         0.249254
 C         1.386795        -0.027161        -0.093173
 C         2.548587         0.367644         0.643460
 C         3.239075         0.369850        -0.772286
 C         1.911965         0.980570        -1.290849
 O         4.737245         0.340536        -0.723252
 C         4.621107        -1.149164        -0.382846
 C         3.111843        -1.092565        -0.917228
 O         1.743093        -1.425895        -0.492205
 H        -0.201741        -0.308738         1.303894
 H        -0.420753         1.077923         0.088031
 H        -0.532598        -0.770209        -0.142617
 H         2.377140         1.388202         0.958378
 H         2.849303        -0.364107         1.372056
 H         1.870098         2.019679        -0.929314
 H         1.552962         0.857055        -2.345968
 H         5.252986        -1.783688        -1.077901
 H         4.683901        -1.304853         0.698585
 H         3.107360        -1.487852        -1.975905
