19
Iteration:  2081
 C        -0.133463         0.074907         0.149547
 C         1.337086        -0.028141        -0.110948
 C         2.461671         0.571666         0.762681
 C         3.293278         0.312166        -0.638163
 C         1.952905         0.872538        -1.306967
 O         4.712588         0.314758        -0.720946
 C         4.693082        -1.181165        -0.591330
 C         3.124785        -1.100069        -0.911325
 O         1.810997        -1.404874        -0.367247
 H        -0.295634        -0.100823         1.270292
 H        -0.627378         0.976457        -0.276508
 H        -0.456379        -0.770576        -0.391112
 H         2.432540         1.655588         0.933206
 H         2.576496        -0.086650         1.671279
 H         1.847344         2.014357        -1.204226
 H         1.649923         0.433132        -2.272876
 H         5.422156        -1.688135        -1.327408
 H         4.808146        -1.529020         0.461092
 H         3.083952        -1.301248        -1.947498
