19
Iteration:  1738charge 0 multiplicity 1
 C        -0.081426        -0.045748         0.132366
 C         1.323840         0.025133        -0.172448
 C         2.520203         0.441318         0.777452
 C         3.256410         0.372267        -0.636139
 C         1.984254         0.886692        -1.323104
 O         4.768888         0.308550        -0.712465
 C         4.538610        -1.179423        -0.578613
 C         3.080782        -1.015304        -0.969804
 O         1.845756        -1.369445        -0.270995
 H        -0.237454        -0.450272         1.036691
 H        -0.432299         1.020361         0.143490
 H        -0.787839        -0.555718        -0.558822
 H         2.315190         1.451821         1.057598
 H         2.883823        -0.181296         1.588317
 H         1.563787         1.945063        -1.240349
 H         1.805636         0.703153        -2.409121
 H         5.283874        -1.515428        -1.276671
 H         4.951987        -1.516032         0.415663
 H         2.920156        -1.321893        -2.027988
