19
Iteration:  2267charge 0 multiplicity 1
 C        -0.164370         0.014465         0.261458
 C         1.272533        -0.007458        -0.181397
 C         2.538363         0.469182         0.781837
 C         3.233448         0.405875        -0.703805
 C         1.987400         0.943109        -1.410218
 O         4.711466         0.221146        -0.791164
 C         4.583140        -1.155417        -0.344541
 C         3.164118        -1.040662        -0.957148
 O         1.889550        -1.399496        -0.399113
 H        -0.379440        -0.777419         0.970818
 H        -0.638406         1.071589         0.436319
 H        -0.744426        -0.243865        -0.669396
 H         2.516335         1.434179         1.191876
 H         3.004361        -0.232586         1.425918
 H         1.889769         2.099358        -1.328753
 H         1.676399         0.595850        -2.413677
 H         5.224947        -1.832206        -0.854155
 H         4.928066        -1.068333         0.713478
 H         3.101401        -1.320229        -2.040273
