19
Iteration:  3929
 C         0.020168        -0.073478         0.388473
 C         1.336816        -0.086791        -0.129553
 C         2.500054         0.678278         0.643103
 C         3.233115         0.393001        -0.729276
 C         1.996236         0.779042        -1.512276
 O         4.695898         0.330636        -0.781775
 C         4.530975        -1.059861        -0.212636
 C         3.137270        -1.106329        -0.920935
 O         1.775726        -1.460954        -0.513283
 H        -0.796258        -0.389435        -0.295661
 H        -0.196704        -0.505176         1.290026
 H        -0.182094         0.911552         0.722449
 H         2.334570         1.746043         0.564363
 H         2.855932         0.458946         1.601711
 H         1.793357         1.851656        -1.421072
 H         1.737077         0.408326        -2.582344
 H         5.355438        -1.743094        -0.672788
 H         4.705485        -0.946324         0.870853
 H         3.357796        -1.574637        -1.943959
