19
Iteration:  2298charge 0 multiplicity 1
 C        -0.010146         0.062950         0.275034
 C         1.339406        -0.058671        -0.264822
 C         2.539653         0.502019         0.740945
 C         3.263588         0.294242        -0.686082
 C         2.013571         0.845080        -1.301997
 O         4.686209         0.410980        -0.729340
 C         4.557034        -1.100990        -0.344958
 C         3.145635        -1.165578        -1.017241
 O         1.707378        -1.422723        -0.512402
 H        -0.034636        -0.016895         1.431765
 H        -0.310126         1.140133         0.104151
 H        -0.547773        -0.741932        -0.136293
 H         2.371243         1.543645         0.953546
 H         2.922002         0.162438         1.701562
 H         1.977448         1.976402        -1.010897
 H         1.575113         0.613858        -2.280057
 H         5.309474        -1.843164        -0.643651
 H         4.625593        -1.089109         0.761377
 H         3.193587        -1.684126        -2.092551
