19
Iteration:  4092charge 0 multiplicity 1
 C        -0.154917         0.015009         0.436712
 C         1.328283        -0.020259        -0.221269
 C         2.523252         0.559650         0.578418
 C         3.224715         0.396981        -0.757756
 C         1.885722         0.722937        -1.462004
 O         4.780228         0.306659        -0.784808
 C         4.656901        -1.087229        -0.198815
 C         3.156608        -1.053251        -0.882464
 O         1.822099        -1.414765        -0.523253
 H        -0.597412        -0.976044         0.022418
 H         0.029296         0.176292         1.568800
 H        -0.729080         0.974185         0.221293
 H         2.329400         1.540852         1.104409
 H         2.782898         0.022565         1.532159
 H         1.479946         1.781358        -1.476127
 H         1.680427         0.150132        -2.418727
 H         5.426515        -1.765088        -0.672508
 H         4.863384        -0.943128         0.819330
 H         3.222122        -1.214701        -1.954983
