19
Iteration:  3954
 C        -0.053399         0.021977         0.277716
 C         1.313960         0.028318        -0.205039
 C         2.544901         0.596448         0.621303
 C         3.221432         0.362955        -0.758788
 C         1.832596         0.737365        -1.441420
 O         4.695892         0.329967        -0.760284
 C         4.615924        -1.089188        -0.258279
 C         3.196772        -1.139056        -0.896807
 O         1.869233        -1.432665        -0.389182
 H        -0.799698         0.118305        -0.508590
 H        -0.402502        -0.803909         0.925822
 H        -0.216876         0.768475         1.066859
 H         2.379723         1.656091         0.768218
 H         2.896855         0.117651         1.560982
 H         1.513735         1.850512        -1.427034
 H         1.501763         0.344145        -2.423280
 H         5.571751        -1.465307        -0.783758
 H         4.706307        -1.199833         0.864338
 H         3.311821        -1.546590        -1.978236
