19
Iteration:   631
 C        -0.247102         0.115959         0.230325
 C         1.303315        -0.018892        -0.150050
 C         2.499650         0.421321         0.831484
 C         3.284690         0.356594        -0.677541
 C         1.919971         0.925879        -1.258640
 O         4.759879         0.329190        -0.877940
 C         4.685390        -1.139426        -0.449709
 C         3.201502        -1.100228        -0.907172
 O         1.815134        -1.477055        -0.478112
 H        -0.207758        -0.422304         1.234540
 H        -0.465681         1.187523         0.357975
 H        -0.976526        -0.232021        -0.614317
 H         2.401082         1.527192         1.010160
 H         3.017520         0.024401         1.751036
 H         1.693266         1.998876        -1.057809
 H         1.761390         0.687618        -2.285254
 H         5.352939        -1.852946        -1.132933
 H         4.862777        -1.274578         0.655074
 H         3.162076        -1.592359        -1.910553
