19
Iteration:  3107
 C        -0.114917        -0.040421         0.400913
 C         1.346897        -0.017633        -0.172316
 C         2.515124         0.494596         0.555787
 C         3.281958         0.393707        -0.786685
 C         1.876899         0.839649        -1.515729
 O         4.846874         0.332816        -0.710996
 C         4.615373        -1.017392        -0.263272
 C         3.125574        -1.120166        -0.960517
 O         1.740290        -1.399711        -0.411481
 H        -0.109112        -0.876311         1.164273
 H        -0.392178         0.835654         0.847955
 H        -0.736936        -0.192094        -0.473507
 H         2.433662         1.441885         1.078405
 H         2.667873        -0.187828         1.414253
 H         1.739240         1.876343        -1.266627
 H         1.659093         0.395207        -2.422016
 H         5.559956        -1.608024        -0.533152
 H         4.416836        -1.064445         0.790090
 H         3.175818        -1.510304        -2.003468
