19
Iteration:  1806charge 0 multiplicity 1
 C        -0.091777         0.050992         0.303921
 C         1.395216         0.006092        -0.129552
 C         2.562031         0.412051         0.707981
 C         3.244585         0.378614        -0.723151
 C         1.880402         0.882583        -1.414037
 O         4.729630         0.308505        -0.804227
 C         4.573596        -1.089768        -0.232424
 C         3.150868        -1.093792        -0.987964
 O         1.817672        -1.388887        -0.509102
 H        -0.172648        -0.934644         0.839254
 H        -0.203688         0.730408         1.043787
 H        -0.930589         0.112108        -0.446469
 H         2.490943         1.396160         1.238583
 H         2.831959        -0.397829         1.395108
 H         1.774525         1.927892        -1.282899
 H         1.620732         0.644875        -2.439337
 H         5.278458        -1.814828        -0.652641
 H         4.574145        -1.303897         0.839309
 H         2.972717        -1.208016        -2.085749
