19
Iteration:  1624charge 0 multiplicity 1
 C        -0.133294         0.002804         0.288931
 C         1.393367         0.044291        -0.127519
 C         2.532315         0.557485         0.668284
 C         3.217363         0.390657        -0.668768
 C         1.876083         0.902455        -1.343351
 O         4.728018         0.276129        -0.666988
 C         4.629092        -1.153794        -0.451465
 C         3.162514        -1.136770        -1.000509
 O         1.835926        -1.442241        -0.467533
 H        -0.317886        -1.007009         0.826857
 H        -0.244247         0.884564         0.827035
 H        -0.784531         0.113003        -0.588059
 H         2.459722         1.605830         0.958703
 H         2.805105         0.058514         1.590794
 H         1.617731         1.938460        -0.952877
 H         1.724237         0.710847        -2.474683
 H         5.317520        -1.719116        -1.156661
 H         4.724221        -1.572059         0.566679
 H         3.117170        -1.219222        -2.090444
