19
Iteration:  1852charge 0 multiplicity 1
 C        -0.084219        -0.050081         0.278772
 C         1.345977         0.069505        -0.221741
 C         2.499975         0.492475         0.710438
 C         3.250238         0.429129        -0.638236
 C         1.993063         0.911614        -1.373707
 O         4.695855         0.284286        -0.679408
 C         4.604443        -1.185287        -0.488024
 C         3.096275        -1.094606        -0.949810
 O         1.806113        -1.399126        -0.418047
 H        -0.134284        -0.530436         1.331118
 H        -0.389382         1.004477         0.390833
 H        -0.692294        -0.517927        -0.468915
 H         2.351967         1.598187         0.971451
 H         2.918480        -0.018387         1.621032
 H         1.731443         1.949423        -1.416770
 H         1.789482         0.349435        -2.274286
 H         5.368418        -1.768791        -1.066929
 H         4.919564        -1.368577         0.541437
 H         3.202017        -1.307775        -2.139070
