19
Iteration:   316
 C        -0.114112        -0.007856         0.197794
 C         1.409407         0.025008        -0.131053
 C         2.538095         0.513320         0.737978
 C         3.283442         0.382175        -0.630805
 C         1.971645         0.873192        -1.250261
 O         4.743953         0.329221        -0.733871
 C         4.515781        -1.222078        -0.539016
 C         3.087594        -1.065627        -0.976659
 O         1.832861        -1.384181        -0.420310
 H        -0.493606        -0.468600         1.193050
 H        -0.447990         0.990226         0.130622
 H        -0.647574        -0.641840        -0.529324
 H         2.330851         1.491888         1.077210
 H         2.784787        -0.111564         1.561992
 H         1.757558         1.899034        -1.027300
 H         1.820191         0.527864        -2.362955
 H         5.283704        -1.775592        -1.166076
 H         4.619441        -1.416873         0.513239
 H         3.035634        -1.166292        -2.076002
