19
Iteration:  2254
 C        -0.209927        -0.030049         0.137379
 C         1.378714         0.039523        -0.116252
 C         2.541417         0.529310         0.724868
 C         3.264112         0.376199        -0.653248
 C         1.959396         0.882032        -1.340183
 O         4.789884         0.308481        -0.818289
 C         4.566211        -1.187007        -0.419398
 C         3.115521        -1.090198        -0.918273
 O         1.828360        -1.354979        -0.356802
 H        -0.413923        -0.925265         0.860134
 H        -0.366886         0.797182         0.854308
 H        -0.831839        -0.120745        -0.719581
 H         2.478486         1.521921         1.139121
 H         2.782033        -0.173011         1.532264
 H         1.750604         2.025798        -1.380643
 H         1.855730         0.431409        -2.339232
 H         5.316623        -1.792367        -0.965786
 H         4.500100        -1.501441         0.633920
 H         3.224902        -1.327851        -2.050531
