19
Iteration:  4120charge 0 multiplicity 1
 C        -0.050633        -0.052919         0.279011
 C         1.398950        -0.023717        -0.197109
 C         2.517883         0.599134         0.627102
 C         3.258788         0.343044        -0.768731
 C         1.893361         0.854649        -1.453912
 O         4.691792         0.321656        -0.778865
 C         4.572915        -1.069786        -0.299024
 C         3.129177        -1.154862        -0.920429
 O         1.864446        -1.408560        -0.327574
 H        -0.503042        -0.934925        -0.089044
 H        -0.107990         0.005954         1.337723
 H        -0.628788         0.814469         0.040538
 H         2.322568         1.644586         0.952048
 H         2.738507         0.026685         1.498843
 H         1.599660         1.850126        -1.308897
 H         1.606977         0.543312        -2.456888
 H         5.364285        -1.702741        -0.598295
 H         4.621900        -0.940397         0.852887
 H         3.014856        -1.440881        -1.991255
