19
Iteration:   765charge 0 multiplicity 1
 C        -0.117667         0.172397         0.175632
 C         1.306975         0.049116        -0.121289
 C         2.482331         0.420092         0.756275
 C         3.276026         0.274680        -0.645377
 C         1.942903         0.905699        -1.220547
 O         4.673489         0.388856        -0.855987
 C         4.602734        -1.099232        -0.438775
 C         3.180468        -1.155457        -0.928214
 O         1.914418        -1.519428        -0.420542
 H        -0.507783        -0.840615         0.637817
 H        -0.436938         1.013528         0.929342
 H        -0.624319         0.299095        -0.753965
 H         2.269984         1.432984         0.751328
 H         2.706134        -0.208442         1.571675
 H         1.775484         1.970476        -1.051394
 H         1.616803         0.619749        -2.258865
 H         5.187838        -1.716327        -1.128404
 H         4.913311        -1.494266         0.579664
 H         3.181881        -1.371844        -2.043121
