19
Iteration:   808charge 0 multiplicity 1
 C        -0.115372        -0.043884         0.186562
 C         1.362754         0.076134        -0.143909
 C         2.528485         0.500976         0.730519
 C         3.247611         0.385753        -0.671816
 C         1.979671         0.922953        -1.314055
 O         4.746648         0.340202        -0.722494
 C         4.546679        -1.217194        -0.489573
 C         3.080632        -1.086261        -0.971151
 O         1.826704        -1.402686        -0.370559
 H        -0.110433        -0.986076         0.816205
 H        -0.425231         0.770902         0.878524
 H        -0.690960        -0.201288        -0.640761
 H         2.504483         1.542942         0.909750
 H         2.772039        -0.189885         1.509423
 H         1.799655         1.975357        -1.206332
 H         1.804861         0.492290        -2.310701
 H         5.260687        -1.725966        -1.138754
 H         4.861571        -1.305387         0.525506
 H         3.052829        -1.405938        -2.028711
