19
Iteration:  1075
 C        -0.084197        -0.074111         0.158691
 C         1.357217         0.003802        -0.091893
 C         2.580069         0.528255         0.766622
 C         3.247040         0.419422        -0.644772
 C         2.042159         0.967078        -1.287985
 O         4.687871         0.245805        -0.739565
 C         4.514664        -1.217509        -0.509986
 C         3.096604        -1.045395        -0.919427
 O         1.818957        -1.353824        -0.429577
 H        -0.199445        -0.382496         1.205391
 H        -0.672903         0.729825        -0.203016
 H        -0.371146        -0.967309        -0.556676
 H         2.439852         1.550076         1.037324
 H         2.923314        -0.117148         1.558249
 H         1.710989         2.087855        -1.139226
 H         1.782862         0.790531        -2.371116
 H         5.141383        -1.781395        -1.228322
 H         4.636279        -1.576774         0.536989
 H         3.027439        -1.156564        -2.041601
