19
Iteration:  4675
 C        -0.115850         0.022143         0.079761
 C         1.383394        -0.098333        -0.093094
 C         2.458895         0.707205         0.728925
 C         3.198349         0.318702        -0.709341
 C         1.942372         0.838245        -1.366803
 O         4.618503         0.356782        -0.851537
 C         4.673866        -1.119533        -0.382673
 C         3.136073        -1.195460        -0.877553
 O         1.921369        -1.419715        -0.263049
 H        -0.601471         0.202964        -0.878927
 H        -0.617735        -0.837691         0.532489
 H        -0.319817         0.952156         0.644739
 H         2.440317         1.829310         0.896411
 H         2.854344         0.162446         1.613322
 H         1.877226         1.873065        -1.062217
 H         1.660029         0.570942        -2.380033
 H         5.301034        -1.813390        -0.972866
 H         5.000230        -1.528001         0.569785
 H         3.211023        -1.657122        -1.934070
