19
Iteration:  3244
 C        -0.023850        -0.073143         0.291536
 C         1.309412         0.069762        -0.221110
 C         2.460602         0.605745         0.602786
 C         3.220659         0.384155        -0.772369
 C         1.848027         0.761781        -1.517625
 O         4.753406         0.284551        -0.779265
 C         4.608232        -1.065498        -0.280996
 C         3.136106        -1.101965        -0.850203
 O         1.915870        -1.402050        -0.303116
 H        -0.819642        -0.088239        -0.408266
 H        -0.241409        -0.854437         0.978670
 H        -0.094971         0.936942         0.826462
 H         2.276217         1.640996         0.866118
 H         2.736558        -0.117761         1.387606
 H         1.584150         1.826456        -1.502211
 H         1.590870         0.202471        -2.386439
 H         5.328770        -1.791675        -0.609330
 H         4.662379        -1.010130         0.812474
 H         3.133222        -1.409151        -1.931890
