19
Iteration:     7charge 0 multiplicity 1
 C        -0.079031        -0.047140         0.285673
 C         1.316340         0.020670        -0.186184
 C         2.526671         0.524394         0.746395
 C         3.252963         0.309381        -0.687305
 C         1.935844         0.921685        -1.313814
 O         4.712411         0.296249        -0.756714
 C         4.590197        -1.109462        -0.453194
 C         3.127207        -1.112113        -0.954538
 O         1.860407        -1.360002        -0.441195
 H        -0.188143        -0.533971         1.253327
 H        -0.536395         1.004185         0.391849
 H        -0.758670        -0.407163        -0.581539
 H         2.478026         1.641064         0.895878
 H         2.998679        -0.036585         1.603212
 H         1.759021         2.021409        -1.221867
 H         1.621285         0.403757        -2.245325
 H         5.159065        -1.801184        -1.096096
 H         4.697218        -1.374129         0.643861
 H         3.134449        -1.560136        -1.980930
