19
Iteration:  3000charge 0 multiplicity 1
 C        -0.088422        -0.029337         0.197337
 C         1.381678        -0.057948        -0.162977
 C         2.436150         0.678357         0.718852
 C         3.286725         0.395457        -0.604644
 C         1.992085         0.797796        -1.367413
 O         4.737306         0.334706        -0.773576
 C         4.573022        -1.162091        -0.506425
 C         3.105104        -1.107273        -0.951943
 O         1.866207        -1.418620        -0.315573
 H        -0.326581        -0.333296         1.296981
 H        -0.638501         0.859482        -0.063220
 H        -0.553373        -0.880981        -0.333322
 H         2.243349         1.789307         0.851337
 H         2.634580        -0.002039         1.578792
 H         1.689581         1.806959        -1.155805
 H         1.797260         0.813736        -2.400631
 H         5.292833        -1.851935        -0.991604
 H         4.569553        -1.264950         0.561850
 H         2.976160        -1.348935        -2.047042
