19
Iteration:  2637charge 0 multiplicity 1
 C        -0.034943        -0.116430         0.242507
 C         1.365870         0.025257        -0.212569
 C         2.626565         0.578774         0.654102
 C         3.238269         0.406877        -0.792261
 C         1.947708         0.866574        -1.470406
 O         4.658954         0.308753        -0.735775
 C         4.567029        -1.101098        -0.260034
 C         3.070292        -1.155814        -0.894025
 O         1.812921        -1.359275        -0.352898
 H        -0.072337        -1.056564         0.715939
 H        -0.205029         0.621179         1.092715
 H        -0.914104         0.027184        -0.412392
 H         2.317306         1.611939         0.995357
 H         3.173414        -0.057593         1.382783
 H         1.810777         1.913313        -1.601456
 H         1.725947         0.303259        -2.398157
 H         5.086386        -1.851365        -0.753178
 H         4.651467        -1.043572         0.854556
 H         3.075115        -1.281525        -1.925361
