19
Iteration:  3901charge 0 multiplicity 1
 C        -0.024172        -0.065996         0.304059
 C         1.251592         0.082169        -0.294243
 C         2.505074         0.523511         0.558345
 C         3.248517         0.387953        -0.724862
 C         1.893191         0.831767        -1.487840
 O         4.714732         0.288613        -0.774125
 C         4.558439        -1.095782        -0.266425
 C         3.182157        -1.082147        -0.932331
 O         1.880624        -1.391240        -0.285563
 H        -0.621602        -0.936218         0.007739
 H         0.054104        -0.233986         1.455584
 H        -0.836332         0.738924         0.298150
 H         2.600818         1.551783         0.974667
 H         2.730078        -0.209553         1.411812
 H         1.772954         1.888709        -1.111713
 H         1.746487         0.507313        -2.477048
 H         5.357390        -1.764331        -0.629529
 H         4.734487        -0.894592         0.784604
 H         3.128449        -1.556260        -1.905489
