19
Iteration:  3853
 C        -0.100963         0.066743         0.056972
 C         1.360270        -0.044467        -0.140158
 C         2.531002         0.687019         0.749277
 C         3.251011         0.356499        -0.571762
 C         1.924629         0.743629        -1.346833
 O         4.665173         0.353761        -0.892118
 C         4.652340        -1.091094        -0.507021
 C         3.125004        -1.155507        -0.824117
 O         1.883739        -1.478641        -0.240734
 H        -0.708832        -0.780349        -0.276457
 H        -0.475216         0.083370         1.036525
 H        -0.664183         0.803408        -0.425803
 H         2.367419         1.734069         0.958948
 H         2.687408         0.179230         1.651232
 H         1.645315         1.760227        -1.263044
 H         1.814204         0.165100        -2.306906
 H         5.320704        -1.787802        -1.132123
 H         4.856939        -1.229784         0.600094
 H         3.029158        -1.260166        -1.966429
