19
Iteration:    92
 C        -0.136267         0.101162         0.187362
 C         1.336934        -0.062069        -0.089814
 C         2.606532         0.447058         0.787478
 C         3.240765         0.325515        -0.699820
 C         1.892247         0.891355        -1.256336
 O         4.716661         0.329908        -0.864624
 C         4.718858        -1.058541        -0.413027
 C         3.117467        -1.146350        -0.861013
 O         1.749930        -1.401756        -0.505420
 H        -0.218580        -0.105748         1.343696
 H        -0.598056         1.093196        -0.032436
 H        -0.750160        -0.602920        -0.457849
 H         2.708185         1.475851         1.148924
 H         2.820917        -0.412331         1.426134
 H         1.624073         1.931716        -0.844669
 H         1.628026         0.674337        -2.341251
 H         5.225655        -1.726903        -1.155976
 H         5.121457        -1.220894         0.614251
 H         3.221983        -1.509913        -1.901365
