19
Iteration:  3331
 C        -0.201789         0.052104         0.155401
 C         1.355657         0.033965        -0.096022
 C         2.598004         0.591840         0.700104
 C         3.180062         0.341819        -0.753559
 C         1.918434         0.733712        -1.486076
 O         4.656688         0.334583        -0.863153
 C         4.691007        -1.021946        -0.391290
 C         3.173086        -1.143878        -0.769169
 O         1.885795        -1.451409        -0.220493
 H        -0.537201         0.419461        -0.768510
 H        -0.366733        -0.965311         0.159691
 H        -0.726455         0.623592         0.938344
 H         2.418040         1.612464         0.863004
 H         2.925265        -0.124008         1.453646
 H         1.422576         1.720263        -1.462119
 H         1.678626         0.299554        -2.398835
 H         5.386426        -1.713623        -0.879632
 H         4.813038        -1.105116         0.690377
 H         3.304942        -1.523268        -1.822120
