19
Iteration:   544
 C         0.026660        -0.082444         0.352562
 C         1.349045         0.044164        -0.189370
 C         2.423793         0.588798         0.716506
 C         3.301146         0.373487        -0.613638
 C         1.916563         0.941413        -1.368305
 O         4.791262         0.264887        -0.757485
 C         4.519175        -1.227588        -0.432355
 C         3.096626        -1.071161        -0.972130
 O         1.807363        -1.382832        -0.480149
 H        -0.327636        -0.913476         1.079230
 H        -0.177541         0.869019         0.847109
 H        -0.647625        -0.215895        -0.587859
 H         2.335632         1.665486         0.936865
 H         2.656816        -0.038301         1.586365
 H         1.603725         1.987470        -1.261204
 H         1.831112         0.676882        -2.433568
 H         5.263780        -1.763216        -1.143712
 H         4.639373        -1.351657         0.659324
 H         3.220321        -1.404940        -2.059747
