19
Iteration:  3670charge 0 multiplicity 1
 C        -0.115719        -0.034964         0.033853
 C         1.438978         0.037335        -0.093530
 C         2.517110         0.669161         0.791318
 C         3.230336         0.335336        -0.617151
 C         1.987075         0.850586        -1.372158
 O         4.615516         0.376456        -0.908036
 C         4.566044        -1.114390        -0.442193
 C         3.096627        -1.200216        -0.924276
 O         1.889919        -1.462109        -0.183701
 H        -0.365841        -1.058178        -0.422621
 H        -0.291390        -0.081458         1.095546
 H        -0.613649         0.817065        -0.371985
 H         2.480272         1.760381         0.867404
 H         2.876551         0.077903         1.615076
 H         1.845653         1.892961        -1.257312
 H         1.941260         0.474879        -2.415869
 H         5.188447        -1.835485        -1.079256
 H         4.856986        -1.165368         0.570382
 H         2.916924        -1.600067        -1.895374
