19
Iteration:  3849charge 0 multiplicity 1
 C        -0.116988         0.085222         0.056256
 C         1.351929        -0.021628        -0.155270
 C         2.503250         0.661582         0.739032
 C         3.253079         0.370517        -0.570956
 C         1.919107         0.750886        -1.347816
 O         4.684890         0.355446        -0.894237
 C         4.636892        -1.113625        -0.533440
 C         3.160603        -1.159591        -0.814730
 O         1.898478        -1.482320        -0.217455
 H        -0.652297        -0.787151        -0.340578
 H        -0.325238        -0.035107         1.187270
 H        -0.703333         0.889579        -0.564725
 H         2.336878         1.719148         1.075537
 H         2.617568        -0.004369         1.662152
 H         1.566938         1.832814        -1.316854
 H         1.746416         0.215199        -2.276159
 H         5.258498        -1.767781        -1.075742
 H         4.905962        -1.059850         0.564668
 H         2.996657        -1.429143        -1.859622
