19
Iteration:  2252
 C        -0.195484        -0.031315         0.132856
 C         1.382683         0.051672        -0.109514
 C         2.547638         0.532208         0.707845
 C         3.273741         0.371840        -0.640561
 C         1.961758         0.871248        -1.334494
 O         4.785221         0.314077        -0.814247
 C         4.566968        -1.182559        -0.430474
 C         3.112772        -1.091096        -0.918498
 O         1.815507        -1.354127        -0.355638
 H        -0.410631        -0.942481         0.825723
 H        -0.338456         0.721355         0.828708
 H        -0.805941        -0.093082        -0.744247
 H         2.458188         1.577702         1.117906
 H         2.711490        -0.139321         1.604791
 H         1.671621         1.948458        -1.314113
 H         1.856941         0.447890        -2.346324
 H         5.330757        -1.842959        -0.959922
 H         4.502352        -1.517812         0.597618
 H         3.184890        -1.352523        -2.036614
