19
Iteration:  3787charge 0 multiplicity 1
 C        -0.024029        -0.044499         0.280904
 C         1.417196         0.002626        -0.124114
 C         2.555360         0.699219         0.636908
 C         3.238937         0.380688        -0.738152
 C         1.823807         0.750849        -1.484402
 O         4.698910         0.273461        -0.813333
 C         4.547154        -1.112629        -0.266711
 C         3.126095        -1.122239        -0.894302
 O         1.851257        -1.357614        -0.397246
 H        -0.624428        -0.339922        -0.623041
 H        -0.257410        -0.808497         1.008900
 H        -0.262396         0.809437         0.939051
 H         2.410215         1.762373         0.751008
 H         2.787087         0.122226         1.516045
 H         1.631507         1.832344        -1.476411
 H         1.519113         0.040439        -2.316843
 H         5.325374        -1.877409        -0.544061
 H         4.617564        -0.946341         0.878013
 H         3.406719        -1.468870        -1.948612
