19
Iteration:  3150charge 0 multiplicity 1
 C         0.037239        -0.038989         0.198209
 C         1.396057        -0.078582        -0.152628
 C         2.416835         0.749055         0.649117
 C         3.201560         0.366825        -0.675340
 C         1.964045         0.812777        -1.366765
 O         4.712667         0.335484        -0.771641
 C         4.618674        -1.104438        -0.387289
 C         3.097886        -1.150526        -0.944796
 O         1.794146        -1.457387        -0.322449
 H        -0.299529        -1.104465         0.393777
 H        -0.177026         0.395218         1.102910
 H        -0.504558         0.448388        -0.631663
 H         2.245183         1.795228         0.664045
 H         2.822946         0.307357         1.581165
 H         1.508441         1.812853        -1.138913
 H         1.844624         0.381107        -2.330370
 H         5.404457        -1.785383        -0.907350
 H         4.741487        -1.176915         0.680053
 H         3.086212        -1.373500        -2.010736
