19
Iteration:  1051charge 0 multiplicity 1
 C        -0.121957        -0.016261         0.253846
 C         1.302780         0.039703        -0.210010
 C         2.548334         0.445964         0.824031
 C         3.260097         0.338295        -0.654876
 C         2.047115         0.951429        -1.312172
 O         4.718541         0.314628        -0.746035
 C         4.570270        -1.142085        -0.459993
 C         3.140498        -1.122652        -1.056118
 O         1.796080        -1.387663        -0.419570
 H        -0.048193        -0.437611         1.267252
 H        -0.609677         1.003225         0.252664
 H        -0.751492        -0.640670        -0.524278
 H         2.561619         1.520560         1.076971
 H         2.646808        -0.294817         1.684631
 H         1.891640         2.139091        -1.163046
 H         1.707045         0.818546        -2.389704
 H         5.360909        -1.727372        -0.967671
 H         4.519770        -1.363221         0.663342
 H         3.093015        -1.357984        -2.127049
