19
Iteration:  3040charge 0 multiplicity 1
 C        -0.177299        -0.047211         0.121203
 C         1.338194         0.032369        -0.160455
 C         2.550313         0.531410         0.699656
 C         3.267170         0.402101        -0.703850
 C         1.880699         0.831105        -1.380179
 O         4.736823         0.323364        -0.746247
 C         4.677293        -1.144284        -0.508532
 C         3.138978        -1.088945        -0.851506
 O         1.829271        -1.366025        -0.230063
 H        -0.483641         0.079900         1.145632
 H        -0.519072         0.700176        -0.520768
 H        -0.610700        -0.947741        -0.381045
 H         2.557789         1.336379         1.330500
 H         2.770775        -0.263409         1.425816
 H         1.564859         1.857369        -1.006560
 H         1.778065         0.558547        -2.397818
 H         5.247508        -1.577738        -1.378642
 H         5.056762        -1.452935         0.471688
 H         3.047455        -1.376921        -1.914126
