19
Iteration:  3221
 C        -0.126400        -0.008480         0.173397
 C         1.320874        -0.065200        -0.095334
 C         2.516276         0.661574         0.619072
 C         3.237518         0.347114        -0.673885
 C         2.013050         0.772757        -1.388036
 O         4.623221         0.353211        -0.891622
 C         4.658188        -1.052231        -0.315082
 C         3.187232        -1.131036        -0.903260
 O         1.819761        -1.474057        -0.281810
 H        -0.740636        -0.534468        -0.488430
 H        -0.396186        -0.444210         1.190381
 H        -0.371896         1.083630         0.218495
 H         2.237462         1.745586         0.614943
 H         2.928501         0.229708         1.549145
 H         1.719772         1.759123        -1.106348
 H         2.049437         0.513318        -2.458273
 H         5.335549        -1.670611        -0.829256
 H         4.866698        -1.085949         0.783239
 H         3.169672        -1.536201        -1.959816
