19
Iteration:  2904charge 0 multiplicity 1
 C        -0.135214        -0.035012         0.240306
 C         1.301569         0.000169        -0.230088
 C         2.481779         0.561750         0.710867
 C         3.278884         0.398543        -0.647854
 C         1.892376         0.787286        -1.400993
 O         4.820334         0.303628        -0.768011
 C         4.663929        -1.141489        -0.424799
 C         3.102425        -1.080146        -0.935511
 O         1.845412        -1.361270        -0.309992
 H        -0.556375        -0.998518         0.574155
 H        -0.274201         0.796881         1.033944
 H        -0.803323         0.423944        -0.468708
 H         2.393060         1.635677         0.927032
 H         2.565556        -0.158843         1.507729
 H         1.413642         1.772644        -1.620653
 H         1.736290         0.258450        -2.427792
 H         5.391065        -1.786854        -0.975391
 H         4.861002        -1.214237         0.672727
 H         3.168968        -1.274511        -1.973217
