19
Iteration:  3652charge 0 multiplicity 1
 C        -0.150476        -0.127527         0.178378
 C         1.378805         0.028617        -0.091694
 C         2.535863         0.580777         0.697262
 C         3.266547         0.349205        -0.737367
 C         2.038145         0.816427        -1.465943
 O         4.695160         0.344069        -0.818087
 C         4.637743        -1.127153        -0.483683
 C         3.089836        -1.096888        -0.788431
 O         1.791570        -1.324065        -0.221325
 H        -0.465205        -0.928822        -0.413398
 H        -0.479829        -0.276601         1.251530
 H        -0.715813         0.694843        -0.272169
 H         2.468567         1.668552         0.925074
 H         2.778704        -0.037340         1.590170
 H         1.721675         1.874724        -1.540530
 H         1.783514         0.373109        -2.435827
 H         5.333477        -1.588273        -1.184384
 H         4.832343        -1.323844         0.644219
 H         2.968944        -1.428167        -1.886861
