19
Iteration:  2871
 C        -0.082467        -0.137661         0.091150
 C         1.376148         0.006184        -0.188765
 C         2.608890         0.664268         0.632242
 C         3.221561         0.303350        -0.671568
 C         1.986852         0.934669        -1.288717
 O         4.600458         0.346366        -0.768337
 C         4.620151        -1.172550        -0.436281
 C         3.049344        -1.144259        -0.880106
 O         1.868451        -1.412923        -0.250654
 H        -0.498937        -1.018265         0.661127
 H        -0.320790         0.856147         0.589046
 H        -0.559830        -0.049252        -0.878923
 H         2.507302         1.721112         0.854877
 H         2.944289         0.251990         1.576306
 H         1.708735         1.963567        -0.949149
 H         1.763150         0.666497        -2.368162
 H         5.210808        -1.751121        -1.197112
 H         4.995381        -1.329294         0.593420
 H         2.949629        -1.273136        -1.925179
