19
Iteration:   493
 C        -0.062186         0.066942         0.240598
 C         1.361931         0.016258        -0.202755
 C         2.590023         0.393369         0.663788
 C         3.226458         0.306022        -0.716207
 C         1.932847         0.941238        -1.210426
 O         4.736828         0.348152        -0.749645
 C         4.609793        -1.128824        -0.403867
 C         3.137817        -1.102722        -0.972669
 O         1.754785        -1.425045        -0.461294
 H        -0.133577         0.098533         1.375872
 H        -0.632936         1.056569         0.011139
 H        -0.618086        -0.577735        -0.439021
 H         2.335701         1.343867         1.155782
 H         2.945936        -0.255014         1.474052
 H         1.550800         1.998713        -0.812100
 H         1.421030         0.807243        -2.177422
 H         5.134082        -1.912970        -0.935325
 H         4.843272        -1.339482         0.672726
 H         3.300022        -1.473594        -1.996895
