19
Iteration:  2069charge 0 multiplicity 1
 C        -0.132846         0.072379         0.097873
 C         1.362126         0.092278        -0.164939
 C         2.548137         0.458173         0.757703
 C         3.204261         0.385504        -0.585118
 C         1.913026         0.861135        -1.330117
 O         4.660470         0.291797        -0.771551
 C         4.638023        -1.204873        -0.490214
 C         3.128867        -1.103917        -0.917577
 O         1.916628        -1.424484        -0.326278
 H        -0.473452        -0.070840         1.229901
 H        -0.517724         1.069103        -0.113396
 H        -0.745688        -0.632210        -0.451626
 H         2.487721         1.468434         1.161087
 H         2.783340        -0.218041         1.599426
 H         1.474332         1.918026        -1.142017
 H         1.879824         0.662168        -2.449202
 H         5.226161        -1.624325        -1.399550
 H         5.188357        -1.446541         0.438286
 H         3.096164        -1.309030        -1.971903
