19
Iteration:  1658
 C        -0.045530         0.036546         0.313141
 C         1.362837        -0.043623        -0.127496
 C         2.559130         0.433639         0.726896
 C         3.225117         0.337730        -0.662929
 C         1.985013         0.921979        -1.380112
 O         4.681828         0.310299        -0.781208
 C         4.503738        -1.103366        -0.319882
 C         3.166346        -1.069407        -0.955813
 O         1.782933        -1.407841        -0.575005
 H         0.007774        -0.417890         1.343932
 H        -0.441356         1.042259         0.560890
 H        -0.657651        -0.559086        -0.318435
 H         2.557067         1.408717         1.216247
 H         2.723434        -0.417438         1.387372
 H         1.604202         2.004337        -1.123982
 H         1.980597         0.642341        -2.509799
 H         5.286272        -1.636102        -0.952959
 H         4.781374        -1.048243         0.736607
 H         3.207800        -1.197805        -2.032790
