19
Iteration:  3822charge 0 multiplicity 1
 C        -0.185367         0.025775         0.158016
 C         1.331816        -0.085896        -0.145131
 C         2.534068         0.590390         0.678474
 C         3.220192         0.290799        -0.714888
 C         1.989240         0.887092        -1.451930
 O         4.658512         0.325743        -0.856972
 C         4.698785        -1.056860        -0.419382
 C         3.127688        -1.171100        -0.837280
 O         1.888496        -1.394696        -0.164947
 H        -0.854033        -0.552484        -0.602642
 H        -0.345297        -0.445046         1.128074
 H        -0.544939         0.996535        -0.039743
 H         2.501870         1.617176         1.007125
 H         2.621487        -0.063037         1.509414
 H         1.836978         1.931379        -1.311202
 H         1.730063         0.622425        -2.513176
 H         5.400632        -1.702002        -1.070641
 H         4.947833        -1.066362         0.617301
 H         2.928761        -1.574495        -1.840041
