19
Iteration:  4284
 C        -0.012158        -0.027916         0.289656
 C         1.361209        -0.007732        -0.239192
 C         2.503574         0.602099         0.629555
 C         3.206076         0.338565        -0.740043
 C         1.916429         0.846835        -1.498716
 O         4.620794         0.320952        -0.786292
 C         4.570507        -1.102769        -0.339002
 C         3.146723        -1.137528        -0.837745
 O         1.883074        -1.417305        -0.276749
 H        -0.439912        -0.872767        -0.212422
 H        -0.061286        -0.281098         1.335510
 H        -0.483904         0.973676         0.232399
 H         2.472411         1.688700         0.613217
 H         2.864653         0.033333         1.487707
 H         1.793782         1.921001        -1.343464
 H         1.790805         0.578716        -2.581148
 H         5.374415        -1.632671        -0.762016
 H         4.623104        -1.229812         0.762271
 H         3.260782        -1.353700        -1.954719
