19
Iteration:   166charge 0 multiplicity 1
 C        -0.033006        -0.088854         0.272777
 C         1.364162         0.026342        -0.102840
 C         2.522947         0.636605         0.753878
 C         3.224870         0.385984        -0.703523
 C         1.878738         0.908617        -1.406293
 O         4.768590         0.183171        -0.684590
 C         4.607932        -1.177878        -0.490212
 C         3.117444        -1.043134        -0.990922
 O         1.789174        -1.346812        -0.417140
 H        -0.293975        -1.113402         0.596668
 H        -0.281109         0.521134         1.052065
 H        -0.540358         0.302630        -0.514995
 H         2.384023         1.692461         0.988723
 H         2.867816         0.037296         1.586502
 H         1.484385         1.850561        -1.189559
 H         1.694155         0.690682        -2.460255
 H         5.256293        -1.782848        -1.166621
 H         4.748313        -1.532606         0.501258
 H         3.130287        -1.394558        -2.016812
