19
Iteration:  3450
 C        -0.083506         0.018023         0.388996
 C         1.338490         0.011019        -0.262422
 C         2.507924         0.453967         0.643654
 C         3.277687         0.371360        -0.742630
 C         1.923723         0.749611        -1.450799
 O         4.749408         0.385985        -0.832869
 C         4.589179        -1.001109        -0.240039
 C         3.145609        -1.077489        -0.952847
 O         1.812260        -1.451932        -0.358451
 H        -0.560722        -0.910097         0.130565
 H        -0.025953         0.239438         1.411573
 H        -0.626628         0.857115        -0.152606
 H         2.459198         1.471698         0.998751
 H         2.620621        -0.306605         1.446006
 H         1.532989         1.796817        -1.562298
 H         1.805845         0.216630        -2.352749
 H         5.264673        -1.840245        -0.568354
 H         4.535645        -1.004580         0.874421
 H         3.191310        -1.342208        -2.034552
