19
Iteration:   944charge 0 multiplicity 1
 C        -0.085250        -0.077917         0.121043
 C         1.344552         0.104178        -0.005666
 C         2.509959         0.505258         0.807844
 C         3.260475         0.372870        -0.583640
 C         1.972826         0.934386        -1.339294
 O         4.768668         0.339640        -0.793312
 C         4.559262        -1.277758        -0.543749
 C         3.145910        -1.101888        -0.998243
 O         1.788677        -1.347499        -0.396184
 H        -0.283733        -0.928108         0.747822
 H        -0.500038         0.721175         0.704191
 H        -0.845059        -0.302535        -0.744896
 H         2.539655         1.583033         0.894206
 H         2.847357         0.065816         1.738097
 H         1.773740         2.011138        -1.118995
 H         1.765545         0.390868        -2.237965
 H         5.225552        -1.911174        -1.166890
 H         4.583756        -1.247045         0.570000
 H         3.056001        -1.337751        -2.110107
