19
Iteration:  3725
 C        -0.052729         0.037240         0.283085
 C         1.379971         0.058238        -0.161024
 C         2.535833         0.559950         0.621486
 C         3.240149         0.312462        -0.686869
 C         1.945187         0.694778        -1.448240
 O         4.605488         0.343859        -0.794662
 C         4.676563        -1.033146        -0.310432
 C         3.125265        -1.142374        -0.913322
 O         1.791211        -1.410890        -0.347058
 H        -0.806100        -0.329255        -0.526314
 H        -0.083769        -0.648521         1.172824
 H        -0.456032         1.011711         0.536157
 H         2.538347         1.653450         0.789240
 H         2.928478         0.072948         1.502666
 H         1.722348         1.715070        -1.560651
 H         1.733839         0.286591        -2.444660
 H         5.363742        -1.761399        -0.826412
 H         4.864015        -0.910156         0.697534
 H         3.209787        -1.439658        -1.946137
