19
Iteration:  3418
 C         0.007165        -0.031008         0.329308
 C         1.395418        -0.064524        -0.210842
 C         2.536135         0.664334         0.574377
 C         3.221367         0.277064        -0.776559
 C         1.873668         0.893163        -1.392656
 O         4.676288         0.344258        -0.770882
 C         4.682272        -1.032445        -0.211271
 C         3.145913        -1.165395        -0.928186
 O         1.758817        -1.498167        -0.410337
 H        -0.629057        -0.707422        -0.195425
 H        -0.070322        -0.182587         1.367755
 H        -0.447028         0.948640         0.030916
 H         2.264073         1.720923         0.581606
 H         2.872798         0.438933         1.609753
 H         1.623882         1.964832        -1.232561
 H         1.534031         0.544610        -2.305886
 H         5.364545        -1.731316        -0.721494
 H         4.518873        -1.064404         0.878073
 H         3.233847        -1.546337        -1.985384
