19
Iteration:  1456charge 0 multiplicity 1
 C        -0.016944        -0.030719         0.233972
 C         1.419728        -0.002388        -0.078527
 C         2.580201         0.526317         0.718249
 C         3.226342         0.317923        -0.654544
 C         1.972297         0.963300        -1.323758
 O         4.678262         0.296911        -0.752995
 C         4.513401        -1.129607        -0.451609
 C         3.077834        -1.072576        -1.014131
 O         1.840458        -1.410022        -0.429242
 H        -0.194922        -0.530790         1.193142
 H        -0.527723         0.837773         0.051004
 H        -0.647565        -0.690216        -0.420119
 H         2.450332         1.647602         0.944975
 H         2.772688        -0.151428         1.577469
 H         1.652105         1.971223        -1.082747
 H         1.905802         0.749983        -2.375072
 H         5.139536        -1.858424        -0.946008
 H         4.487639        -1.261773         0.626897
 H         2.961971        -1.345803        -2.068004
