19
Iteration:  1050
 C        -0.119137        -0.009751         0.250088
 C         1.307860         0.032709        -0.209198
 C         2.541525         0.445578         0.825358
 C         3.254705         0.337468        -0.666284
 C         2.041996         0.952035        -1.309130
 O         4.726635         0.313024        -0.745874
 C         4.572085        -1.133223        -0.460366
 C         3.143461        -1.128042        -1.041900
 O         1.794982        -1.390239        -0.427710
 H        -0.036350        -0.430713         1.275028
 H        -0.635687         1.032959         0.302268
 H        -0.742706        -0.618549        -0.509409
 H         2.542487         1.543851         1.056785
 H         2.655744        -0.335880         1.685956
 H         1.880002         2.122767        -1.167636
 H         1.692494         0.848415        -2.382717
 H         5.361906        -1.720992        -0.963580
 H         4.510261        -1.391358         0.653286
 H         3.087542        -1.352786        -2.096220
