19
Iteration:  3290
 C         0.007330         0.022143         0.349769
 C         1.374422        -0.039548        -0.182036
 C         2.444710         0.734858         0.557043
 C         3.190415         0.325329        -0.762183
 C         1.931440         0.797181        -1.457354
 O         4.628743         0.278614        -0.811914
 C         4.586393        -1.014824        -0.194194
 C         3.192814        -1.158444        -0.901651
 O         1.871016        -1.499030        -0.373867
 H        -0.809725         0.241009        -0.431563
 H        -0.289939        -0.999063         0.487622
 H        -0.202836         0.506465         1.342364
 H         2.281520         1.802920         0.493198
 H         2.736944         0.342754         1.555828
 H         1.906904         1.931285        -1.378699
 H         1.737411         0.372971        -2.417707
 H         5.380821        -1.612570        -0.749607
 H         4.798001        -1.107003         0.833937
 H         3.301934        -1.532749        -1.936160
