19
Iteration:  3692
 C        -0.193832         0.052089         0.081437
 C         1.321517        -0.073324        -0.113572
 C         2.493489         0.557604         0.695799
 C         3.242234         0.384342        -0.707201
 C         1.866752         0.837728        -1.340539
 O         4.715567         0.265024        -0.908457
 C         4.697077        -1.098860        -0.396734
 C         3.168564        -1.069572        -0.885995
 O         1.904928        -1.426815        -0.179511
 H        -0.647270        -0.793686        -0.567688
 H        -0.441425        -0.001444         1.143893
 H        -0.327596         1.069143        -0.211339
 H         2.291797         1.627385         0.849153
 H         2.976864         0.036953         1.513263
 H         1.555492         1.750860        -0.933909
 H         1.653425         0.586669        -2.404828
 H         5.306449        -1.935582        -0.908844
 H         5.024194        -1.029634         0.585581
 H         3.102248        -1.381408        -1.910701
