19
Iteration:  1497
 C        -0.083192        -0.036102         0.414381
 C         1.315672        -0.061530        -0.226069
 C         2.449616         0.536932         0.706049
 C         3.275739         0.432958        -0.723726
 C         1.932247         0.941552        -1.353978
 O         4.827852         0.239752        -0.636051
 C         4.630881        -1.160232        -0.454430
 C         3.084004        -1.052969        -0.960914
 O         1.750629        -1.411952        -0.524879
 H         0.108686        -0.225216         1.470038
 H        -0.521903         1.140230         0.126049
 H        -0.608157        -0.813383        -0.091027
 H         2.499790         1.676005         0.620714
 H         2.807899        -0.091971         1.558728
 H         1.696484         1.995213        -1.135414
 H         1.638792         0.762659        -2.387416
 H         5.405510        -1.566950        -1.171063
 H         4.833752        -1.508806         0.570000
 H         3.191026        -1.399634        -2.059593
