19
Iteration:  4634
 C        -0.188543        -0.063874         0.171399
 C         1.300698        -0.027066        -0.128193
 C         2.559897         0.594787         0.729866
 C         3.224036         0.412225        -0.744331
 C         1.969685         0.782176        -1.496396
 O         4.771841         0.325481        -0.812332
 C         4.615415        -1.105905        -0.431547
 C         3.197032        -1.111794        -0.829606
 O         1.783217        -1.335023        -0.210449
 H        -0.741690         0.112882        -0.806505
 H        -0.553751        -1.087112         0.510072
 H        -0.518708         0.658855         0.934496
 H         2.440011         1.571825         1.124355
 H         2.814736        -0.197598         1.451778
 H         1.619127         1.858496        -1.459836
 H         1.871544         0.375927        -2.551460
 H         5.327636        -1.706256        -1.116208
 H         5.105185        -1.279008         0.623794
 H         3.186674        -1.491140        -1.851804
