19
Iteration:  1491
 C        -0.078455        -0.022204         0.413642
 C         1.333075        -0.045086        -0.224908
 C         2.448369         0.512717         0.669061
 C         3.300614         0.438393        -0.686384
 C         1.888491         0.928108        -1.381859
 O         4.861509         0.266284        -0.631097
 C         4.635012        -1.181534        -0.482719
 C         3.076429        -1.064464        -0.959769
 O         1.753573        -1.370212        -0.522015
 H        -0.190759        -0.178093         1.517993
 H        -0.633033         0.785392         0.324118
 H        -0.568014        -0.907779        -0.127554
 H         2.613081         1.575615         0.884021
 H         2.721313         0.020419         1.601586
 H         1.717981         1.989376        -1.204739
 H         1.734366         0.561640        -2.433066
 H         5.306490        -1.739329        -1.117296
 H         4.750042        -1.499606         0.568585
 H         3.036447        -1.309944        -1.990253
