19
Iteration:  1462
 C        -0.012117        -0.055165         0.260434
 C         1.397631         0.030228        -0.146245
 C         2.553167         0.534447         0.756541
 C         3.221836         0.388506        -0.673240
 C         1.971764         0.916173        -1.335198
 O         4.617217         0.259319        -0.722516
 C         4.530031        -1.186508        -0.438827
 C         3.082417        -1.052008        -1.020202
 O         1.887438        -1.372074        -0.460635
 H        -0.195726        -0.380885         1.305506
 H        -0.741383         0.929474         0.180405
 H        -0.608356        -0.793323        -0.286409
 H         2.773249         1.539338         1.068840
 H         2.862071        -0.045052         1.625166
 H         1.801754         2.013073        -1.196203
 H         1.733023         0.483647        -2.372868
 H         5.341494        -1.727568        -1.013618
 H         4.552852        -1.447901         0.650897
 H         3.039335        -1.249109        -2.131213
