19
Iteration:  2146charge 0 multiplicity 1
 C        -0.097534        -0.022000         0.291410
 C         1.409220        -0.033982        -0.203282
 C         2.546861         0.504259         0.723772
 C         3.310628         0.337346        -0.741273
 C         1.898308         0.937571        -1.326199
 O         4.746189         0.281614        -0.743756
 C         4.561065        -1.097483        -0.307960
 C         3.149768        -1.131438        -0.997152
 O         1.769856        -1.367925        -0.501331
 H        -0.203002        -0.562674         1.321991
 H        -0.556917         1.041367         0.319209
 H        -0.778045        -0.504158        -0.388200
 H         2.727308         1.535600         0.862318
 H         2.868632        -0.122279         1.532341
 H         1.528749         2.026426        -1.088999
 H         1.679884         0.657819        -2.376246
 H         5.355768        -1.845962        -0.523777
 H         4.330944        -0.963236         0.761626
 H         3.023967        -1.390968        -2.036228
