19
Iteration:   455
 C        -0.073317         0.009595         0.212713
 C         1.354717        -0.038280        -0.119161
 C         2.476720         0.478997         0.800254
 C         3.294378         0.422966        -0.559812
 C         2.081118         0.986560        -1.308820
 O         4.714606         0.315323        -0.822402
 C         4.511935        -1.190711        -0.511003
 C         3.093367        -1.137214        -0.988979
 O         1.785832        -1.416297        -0.388161
 H        -0.464167        -0.386361         1.079337
 H        -0.366299         0.985344        -0.011895
 H        -0.467192        -0.719793        -0.510830
 H         2.329603         1.503126         1.108770
 H         2.903806        -0.150527         1.570448
 H         1.785918         1.956141        -1.202028
 H         1.870546         0.610476        -2.321547
 H         5.130702        -1.674585        -1.281030
 H         4.915595        -1.260379         0.466813
 H         3.055972        -1.207299        -2.085308
