19
Iteration:   620charge 0 multiplicity 1
 C        -0.136713         0.130693         0.195249
 C         1.311729        -0.092555        -0.166545
 C         2.545999         0.440605         0.764605
 C         3.254524         0.363670        -0.591515
 C         1.960034         0.967230        -1.278993
 O         4.713858         0.319608        -0.928907
 C         4.649574        -1.126148        -0.450794
 C         3.146152        -1.114650        -0.821208
 O         1.818352        -1.475045        -0.441510
 H        -0.539660        -0.631455         0.980321
 H        -0.326762         1.120604         0.632281
 H        -0.909567        -0.113319        -0.652929
 H         2.339027         1.478782         1.131107
 H         2.606977        -0.324840         1.571917
 H         1.588567         1.975320        -1.019131
 H         1.805637         0.733054        -2.314992
 H         5.336107        -1.839859        -1.103006
 H         5.091982        -1.058367         0.565644
 H         3.288658        -1.259343        -1.937831
