19
Iteration:   647charge 0 multiplicity 1
 C        -0.107983         0.050318         0.268620
 C         1.343113        -0.002523        -0.070259
 C         2.537815         0.513669         0.704869
 C         3.238686         0.285038        -0.664150
 C         1.943324         0.875379        -1.281739
 O         4.711726         0.296558        -0.748393
 C         4.660631        -1.116827        -0.462684
 C         3.123296        -1.131108        -1.045652
 O         1.813940        -1.370318        -0.459223
 H        -0.461879        -0.246780         1.273672
 H        -0.548223         1.084817         0.065306
 H        -0.626212        -0.578756        -0.411067
 H         2.461598         1.523241         1.066018
 H         2.629012        -0.247790         1.453895
 H         1.777328         1.934170        -1.055897
 H         1.601703         0.561764        -2.318354
 H         5.479072        -1.602449        -0.902104
 H         4.784283        -1.307196         0.642389
 H         3.197795        -1.206122        -2.140070
