19
Iteration:   168charge 0 multiplicity 1
 C        -0.046459        -0.103952         0.281176
 C         1.364557         0.051440        -0.122198
 C         2.553402         0.645247         0.746284
 C         3.234953         0.384440        -0.698537
 C         1.882566         0.875601        -1.399668
 O         4.767575         0.198655        -0.681446
 C         4.605312        -1.167681        -0.490537
 C         3.113744        -1.069978        -0.982275
 O         1.780477        -1.347884        -0.439049
 H        -0.317359        -1.127075         0.623692
 H        -0.280238         0.568557         1.144258
 H        -0.633634         0.323837        -0.533067
 H         2.390674         1.711314         1.095758
 H         2.872946         0.043917         1.647938
 H         1.474652         1.941152        -1.183996
 H         1.700920         0.713465        -2.482297
 H         5.255326        -1.769505        -1.145047
 H         4.725157        -1.573238         0.527125
 H         3.117793        -1.401790        -2.035980
