19
Iteration:  1799
 C        -0.063758         0.022728         0.291685
 C         1.362539         0.048795        -0.133857
 C         2.543526         0.388049         0.725074
 C         3.228167         0.421178        -0.725226
 C         1.872487         0.816472        -1.387250
 O         4.764038         0.293741        -0.813048
 C         4.562077        -1.097360        -0.283677
 C         3.166509        -1.098328        -0.968857
 O         1.764876        -1.347563        -0.494328
 H        -0.320449        -0.968652         0.840872
 H        -0.202743         0.822037         1.117923
 H        -0.639937         0.181977        -0.599668
 H         2.628002         1.358748         1.267077
 H         2.828615        -0.430272         1.422252
 H         1.588450         1.866177        -1.179627
 H         1.789311         0.520273        -2.437355
 H         5.413583        -1.673604        -0.720150
 H         4.492475        -1.146177         0.800553
 H         3.467981        -1.260827        -2.075412
