19
Iteration:  4281charge 0 multiplicity 1
 C         0.004514        -0.029154         0.318488
 C         1.391815         0.009046        -0.243627
 C         2.483558         0.614156         0.592543
 C         3.181801         0.339294        -0.742939
 C         1.946694         0.833306        -1.474709
 O         4.607584         0.317356        -0.790236
 C         4.556616        -1.100340        -0.321133
 C         3.164794        -1.137902        -0.838531
 O         1.878004        -1.426199        -0.304024
 H        -0.499388        -0.802753        -0.324610
 H         0.013764        -0.357246         1.394903
 H        -0.552613         0.927891         0.194753
 H         2.472000         1.679360         0.666008
 H         2.846290         0.194856         1.546480
 H         1.766285         1.877169        -1.222776
 H         1.811536         0.570423        -2.560094
 H         5.335793        -1.672839        -0.799397
 H         4.627130        -1.198010         0.760810
 H         3.218162        -1.396004        -1.888015
