19
Iteration:  2621
 C        -0.046448        -0.119647         0.313633
 C         1.408884         0.037691        -0.118310
 C         2.578572         0.695212         0.573403
 C         3.216501         0.341857        -0.737921
 C         1.958519         0.881844        -1.445096
 O         4.694662         0.295929        -0.758660
 C         4.515374        -1.110587        -0.266403
 C         3.124915        -1.118735        -0.890208
 O         1.784437        -1.418718        -0.429430
 H        -0.076409        -1.150443         0.810073
 H        -0.513601         0.698694         0.833460
 H        -0.488154        -0.221362        -0.681697
 H         2.618539         1.776955         0.697047
 H         2.809473         0.155336         1.486349
 H         1.644005         1.935952        -1.204761
 H         1.706207         0.654787        -2.478488
 H         5.365998        -1.665090        -0.798739
 H         4.551751        -1.345268         0.799388
 H         3.208088        -1.739472        -1.861564
