19
Iteration:  3231
 C        -0.147557         0.036633         0.253576
 C         1.386206        -0.058655        -0.211188
 C         2.503587         0.650198         0.648519
 C         3.215895         0.377029        -0.701113
 C         1.915749         0.819973        -1.478004
 O         4.664232         0.338784        -0.869257
 C         4.599622        -1.109566        -0.294392
 C         3.206321        -1.123434        -0.831326
 O         1.889664        -1.499510        -0.301149
 H        -0.675532        -0.377451        -0.548868
 H        -0.099168        -0.703357         1.110179
 H        -0.593362         0.965821         0.607945
 H         2.377539         1.748117         0.888962
 H         2.806187         0.257484         1.636785
 H         1.610512         1.850988        -1.436802
 H         1.767683         0.447443        -2.528449
 H         5.317985        -1.676794        -0.823734
 H         4.698153        -1.137580         0.826545
 H         3.340120        -1.488192        -1.899510
