19
Iteration:  2525
 C        -0.229989         0.009921         0.164867
 C         1.373858         0.022613        -0.175061
 C         2.522317         0.568554         0.696525
 C         3.277526         0.369167        -0.677097
 C         1.930446         0.914633        -1.359610
 O         4.695143         0.290021        -0.851378
 C         4.641461        -1.175350        -0.396860
 C         3.130915        -1.104445        -0.830805
 O         1.900858        -1.434011        -0.315101
 H        -0.293460        -0.050955         1.293351
 H        -0.629036         0.899564        -0.304261
 H        -0.681682        -0.835291        -0.288921
 H         2.482993         1.586661         1.202390
 H         2.671573        -0.326825         1.381831
 H         1.565705         1.946693        -1.320565
 H         1.784904         0.504274        -2.348408
 H         5.402800        -1.643629        -1.031339
 H         4.784343        -1.493327         0.637563
 H         3.190310        -1.120225        -1.878552
