19
Iteration:  4142charge 0 multiplicity 1
 C        -0.119440        -0.062658         0.145038
 C         1.354913        -0.025157        -0.107168
 C         2.559270         0.697707         0.646181
 C         3.205014         0.286973        -0.672702
 C         1.972576         0.880710        -1.401641
 O         4.615433         0.358924        -0.830340
 C         4.552720        -1.107299        -0.408752
 C         3.177434        -1.165380        -0.884166
 O         1.887228        -1.457867        -0.239546
 H        -0.415060        -0.759634        -0.566522
 H        -0.286228        -0.355081         1.142166
 H        -0.549849         0.906379         0.097884
 H         2.545471         1.768669         0.758634
 H         2.931257         0.347333         1.581142
 H         1.822377         1.915481        -1.358302
 H         1.868640         0.486133        -2.406630
 H         5.225068        -1.695176        -0.939745
 H         4.760020        -1.184266         0.731646
 H         3.191631        -1.483991        -1.977233
