19
Iteration:   596charge 0 multiplicity 1
 C        -0.026874         0.081340         0.140731
 C         1.413483        -0.012951        -0.101159
 C         2.544564         0.428453         0.850543
 C         3.225648         0.313596        -0.692194
 C         2.002695         0.904817        -1.310237
 O         4.625703         0.349291        -0.809583
 C         4.559089        -1.108110        -0.484676
 C         3.101350        -1.146665        -1.019801
 O         1.812516        -1.387993        -0.338437
 H        -0.241286        -0.873744         0.539463
 H        -0.307737         0.768431         0.861143
 H        -0.725181         0.062322        -0.767716
 H         2.424020         1.528062         1.039191
 H         2.872123        -0.191719         1.728348
 H         1.760284         1.916105        -1.204765
 H         1.776675         0.523696        -2.318935
 H         5.486510        -1.558498        -0.906893
 H         4.576483        -1.164467         0.581508
 H         3.094603        -1.491314        -2.039489
