19
Iteration:  3802charge 0 multiplicity 1
 C        -0.022952        -0.025366         0.219085
 C         1.369827         0.077318        -0.136527
 C         2.557017         0.651707         0.624009
 C         3.233333         0.344691        -0.733612
 C         1.956494         0.766844        -1.377196
 O         4.649984         0.355781        -0.857099
 C         4.585965        -1.089490        -0.296215
 C         3.134489        -1.167928        -0.856983
 O         1.797860        -1.483532        -0.315079
 H        -0.694882        -0.307954        -0.659611
 H        -0.235135        -0.798478         1.021116
 H        -0.568439         0.880650         0.370753
 H         2.406978         1.751020         0.634800
 H         3.093532         0.397788         1.557485
 H         1.677275         1.823783        -1.276360
 H         1.811307         0.381343        -2.393582
 H         5.335244        -1.650994        -0.896339
 H         4.658887        -1.257144         0.724306
 H         3.147834        -1.447017        -1.894516
