19
Iteration:  4575
 C        -0.048171         0.022078         0.380809
 C         1.346569        -0.066854        -0.224825
 C         2.564418         0.467204         0.541050
 C         3.221419         0.437453        -0.752906
 C         1.893130         0.818332        -1.463818
 O         4.717708         0.333783        -0.774348
 C         4.482643        -1.086005        -0.188517
 C         3.147044        -1.051963        -0.928618
 O         1.875741        -1.454865        -0.390442
 H        -0.784064        -0.439505        -0.227896
 H        -0.026328        -0.245127         1.410203
 H        -0.240233         1.101823         0.157817
 H         2.409044         1.428111         1.131265
 H         2.918881        -0.190845         1.316658
 H         1.765210         1.872153        -1.467503
 H         1.729749         0.351958        -2.396988
 H         5.136402        -1.678143        -0.779751
 H         4.651816        -1.002798         0.922580
 H         3.228968        -1.321601        -2.049617
