19
Iteration:  1824
 C        -0.060866        -0.019899         0.368032
 C         1.331372        -0.008421        -0.218135
 C         2.526194         0.509025         0.623424
 C         3.225034         0.377512        -0.718956
 C         2.002074         0.978820        -1.326524
 O         4.664556         0.300235        -0.721871
 C         4.541407        -1.133696        -0.353761
 C         3.146823        -1.159290        -0.992411
 O         1.823573        -1.455992        -0.481229
 H        -0.270737        -0.774570         1.058956
 H        -0.114705         0.978865         0.964433
 H        -0.723024         0.022206        -0.512549
 H         2.464441         1.561408         0.787095
 H         2.879557         0.058816         1.534446
 H         1.701998         2.041757        -1.010142
 H         1.878826         0.768973        -2.449026
 H         5.379651        -1.659961        -0.787804
 H         4.579281        -1.165794         0.790313
 H         3.434879        -1.450606        -1.971221
