19
Iteration:  2106
 C        -0.130389        -0.045553         0.279600
 C         1.336864        -0.073438        -0.173137
 C         2.578671         0.633378         0.713615
 C         3.246138         0.368704        -0.593469
 C         2.040675         0.929274        -1.406697
 O         4.715597         0.294916        -0.702714
 C         4.599096        -1.189657        -0.471748
 C         3.080744        -1.084145        -0.963187
 O         1.768538        -1.406204        -0.436487
 H        -0.111485        -0.097882         1.287587
 H        -0.700396         0.862141        -0.065032
 H        -0.563063        -0.966955        -0.117643
 H         2.439438         1.767908         0.848774
 H         2.688460         0.100633         1.690825
 H         1.688959         1.911813        -1.209209
 H         2.130772         0.687622        -2.420710
 H         5.295409        -1.593767        -1.192511
 H         4.796472        -1.588616         0.555175
 H         3.135228        -1.342282        -2.026493
