19
Iteration:   485
 C        -0.119935         0.085968         0.225910
 C         1.323364        -0.011982        -0.226728
 C         2.607187         0.447240         0.768964
 C         3.257767         0.347212        -0.620178
 C         1.901800         0.938765        -1.215550
 O         4.701025         0.303465        -0.791934
 C         4.591957        -1.131195        -0.417362
 C         3.148495        -1.186467        -1.026869
 O         1.810507        -1.403006        -0.463131
 H        -0.240424         0.002950         1.287327
 H        -0.463708         1.083544        -0.158395
 H        -0.815034        -0.642549        -0.351972
 H         2.694210         1.511805         1.164535
 H         2.954627        -0.306598         1.528689
 H         1.638046         1.943865        -0.829688
 H         1.707216         0.760063        -2.265623
 H         5.360445        -1.659704        -0.982985
 H         4.820162        -1.201154         0.658281
 H         3.199888        -1.353910        -2.090101
