19
Iteration:   612charge 0 multiplicity 1
 C        -0.079757         0.071342         0.187328
 C         1.383987        -0.051254        -0.173173
 C         2.493687         0.450332         0.733838
 C         3.208537         0.387402        -0.576970
 C         2.000506         0.893098        -1.271282
 O         4.644365         0.290196        -0.924059
 C         4.691247        -1.090815        -0.432943
 C         3.111444        -1.105660        -0.875579
 O         1.804262        -1.445575        -0.396133
 H        -0.580998        -0.698653         0.920919
 H        -0.102784         1.123317         0.688955
 H        -0.588593         0.129723        -0.779567
 H         2.391355         1.375960         1.266471
 H         2.745882        -0.366863         1.413362
 H         1.749168         1.975749        -0.957005
 H         1.837445         0.788857        -2.346624
 H         5.270508        -1.729126        -1.133255
 H         4.864173        -1.182363         0.707073
 H         3.087908        -1.165373        -2.014205
