19
Iteration:  3355
 C        -0.095528        -0.010792         0.080605
 C         1.359938        -0.085263        -0.205813
 C         2.514280         0.755146         0.671237
 C         3.204664         0.277183        -0.731032
 C         1.960374         0.744752        -1.265966
 O         4.663911         0.366930        -0.873757
 C         4.659472        -1.061560        -0.398442
 C         3.132025        -1.166549        -0.861046
 O         1.858524        -1.429245        -0.146045
 H        -0.544872         0.387506        -0.894938
 H        -0.411242        -0.985421         0.322519
 H        -0.309855         0.739915         0.842591
 H         2.244801         1.740141         0.433342
 H         2.709705         0.314249         1.649528
 H         1.746190         1.845082        -1.165989
 H         1.555263         0.426465        -2.198389
 H         5.327982        -1.695811        -1.081380
 H         4.880700        -1.285213         0.609839
 H         3.190686        -1.503087        -1.924419
