19
Iteration:  2351charge 0 multiplicity 1
 C        -0.074705        -0.038879         0.217892
 C         1.328310        -0.055124        -0.179042
 C         2.476150         0.615198         0.693518
 C         3.287552         0.370049        -0.631713
 C         1.985393         0.917933        -1.311665
 O         4.768066         0.265611        -0.747030
 C         4.548286        -1.168261        -0.446208
 C         3.078006        -1.110214        -0.982552
 O         1.818903        -1.387308        -0.379365
 H        -0.202238        -0.136730         1.367277
 H        -0.482205         0.901245        -0.092458
 H        -0.395028        -0.896150        -0.322816
 H         2.453041         1.728788         0.856355
 H         2.729867         0.079549         1.678719
 H         1.606980         1.977304        -1.211613
 H         1.919506         0.684967        -2.367619
 H         5.425724        -1.604166        -1.020691
 H         4.489226        -1.375735         0.641408
 H         3.085971        -1.359569        -2.086179
