19
Iteration:  2206
 C        -0.238173         0.071127         0.220024
 C         1.347479        -0.025273        -0.180988
 C         2.479516         0.494291         0.691470
 C         3.290222         0.366077        -0.665462
 C         2.020108         0.907758        -1.398259
 O         4.744520         0.334840        -0.726839
 C         4.600110        -1.179125        -0.499597
 C         3.086955        -1.100792        -0.950871
 O         1.880268        -1.439229        -0.260619
 H        -0.601367        -0.892873         0.386748
 H        -0.525146         0.671713         1.023991
 H        -0.682633         0.274332        -0.775391
 H         2.593325         1.581348         0.967146
 H         2.804112        -0.123942         1.579002
 H         1.691562         1.877708        -1.196994
 H         1.957136         0.666890        -2.467211
 H         5.307908        -1.750522        -1.125968
 H         4.877440        -1.297316         0.557551
 H         3.117901        -1.322599        -1.996990
