19
Iteration:  2296charge 0 multiplicity 1
 C         0.006866         0.062843         0.260262
 C         1.334392        -0.070879        -0.273262
 C         2.522812         0.506164         0.725171
 C         3.264367         0.298273        -0.689025
 C         2.001643         0.870277        -1.276729
 O         4.696781         0.409580        -0.746421
 C         4.535707        -1.105287        -0.337242
 C         3.150645        -1.180500        -0.996280
 O         1.710805        -1.419381        -0.505995
 H        -0.018637        -0.078845         1.447772
 H        -0.278149         1.059283         0.108834
 H        -0.595589        -0.702216        -0.166967
 H         2.373432         1.605954         0.995051
 H         2.954743         0.101237         1.724801
 H         2.006750         1.975833        -1.049577
 H         1.606752         0.611102        -2.261339
 H         5.408936        -1.805655        -0.651384
 H         4.654304        -1.127707         0.743981
 H         3.132171        -1.630470        -2.075967
