19
Iteration:  4398
 C         0.037892        -0.063132         0.280707
 C         1.363156        -0.027502        -0.127345
 C         2.496215         0.695501         0.577529
 C         3.231866         0.309504        -0.775023
 C         1.854594         0.803272        -1.398729
 O         4.736401         0.319878        -0.750385
 C         4.553635        -1.111975        -0.281936
 C         3.146957        -1.121003        -0.890895
 O         1.807602        -1.388501        -0.417527
 H        -0.563378        -0.062603        -0.642330
 H        -0.278270        -0.864365         0.927631
 H        -0.063855         0.866437         0.810025
 H         2.223094         1.742018         0.507442
 H         3.049552         0.523711         1.549896
 H         1.590144         1.830509        -1.405040
 H         1.437932         0.202123        -2.157208
 H         5.375067        -1.795277        -0.654605
 H         4.674333        -1.193085         0.819165
 H         3.209020        -1.543824        -1.940493
