19
Iteration:  1070
 C        -0.095904        -0.094381         0.165724
 C         1.407265         0.037158        -0.075084
 C         2.549158         0.511675         0.708878
 C         3.247638         0.372782        -0.612528
 C         2.055714         0.963072        -1.273500
 O         4.656028         0.273472        -0.744706
 C         4.527510        -1.228835        -0.498510
 C         3.047564        -1.044336        -0.942323
 O         1.853880        -1.339375        -0.435944
 H        -0.359633        -0.293451         1.228311
 H        -0.790846         0.817617        -0.012886
 H        -0.385310        -0.887175        -0.481869
 H         2.480076         1.614801         0.962807
 H         2.946604        -0.323036         1.396907
 H         1.735077         1.987226        -1.226088
 H         2.021377         0.768062        -2.356871
 H         5.249885        -1.800085        -1.093577
 H         4.639766        -1.532325         0.562265
 H         3.006845        -1.076085        -2.015093
