19
Iteration:  3421
 C        -0.034226        -0.010419         0.345946
 C         1.424343        -0.083210        -0.196295
 C         2.548451         0.645452         0.594462
 C         3.222316         0.289834        -0.797940
 C         1.871244         0.913829        -1.419708
 O         4.642200         0.324356        -0.766359
 C         4.674948        -1.032736        -0.201074
 C         3.193135        -1.160012        -0.913328
 O         1.771143        -1.497692        -0.424775
 H        -0.710633        -0.741224        -0.224520
 H         0.056542        -0.074668         1.432523
 H        -0.471876         0.903323        -0.013846
 H         2.188612         1.679422         0.492832
 H         2.927530         0.403841         1.616585
 H         1.636742         1.962322        -1.210779
 H         1.428560         0.573213        -2.365104
 H         5.344201        -1.767187        -0.732372
 H         4.482091        -1.004485         0.848745
 H         3.273251        -1.497096        -1.991683
