19
Iteration:  2800charge 0 multiplicity 1
 C        -0.026865         0.031495         0.362645
 C         1.349569        -0.026501        -0.154989
 C         2.477806         0.482669         0.549192
 C         3.268191         0.352041        -0.710636
 C         1.937435         0.899106        -1.426425
 O         4.688006         0.402387        -0.671549
 C         4.670697        -1.061000        -0.319690
 C         3.086783        -1.196452        -0.962787
 O         1.766313        -1.491779        -0.478183
 H        -0.099948         0.286656         1.392370
 H        -0.440358         0.889647        -0.218558
 H        -0.688041        -0.859493         0.118528
 H         2.452234         1.466679         1.056547
 H         2.896733        -0.068120         1.436525
 H         1.853498         1.891166        -1.075962
 H         1.798040         0.739726        -2.481549
 H         5.472409        -1.448621        -0.875689
 H         4.762814        -1.218286         0.765623
 H         3.124885        -1.604649        -2.031877
