19
Iteration:  1425
 C        -0.185813         0.074428         0.142079
 C         1.344786        -0.010207        -0.123625
 C         2.573765         0.451092         0.756247
 C         3.230034         0.308275        -0.656938
 C         1.924619         0.960869        -1.248672
 O         4.688537         0.285469        -0.897759
 C         4.684712        -1.111213        -0.437017
 C         3.147737        -1.081150        -0.897037
 O         1.848014        -1.435946        -0.383298
 H        -0.392435        -0.731332         0.935232
 H        -0.362869         0.984931         0.651611
 H        -0.800262        -0.075180        -0.868242
 H         2.471934         1.461155         1.178523
 H         2.717653        -0.343089         1.487324
 H         1.616122         1.986316        -0.933930
 H         1.754120         0.841353        -2.367818
 H         5.247503        -1.859216        -0.986475
 H         4.882295        -1.150491         0.652702
 H         3.214532        -1.389655        -1.934543
