19
Iteration:  4058
 C        -0.001167         0.004770         0.273952
 C         1.392359        -0.067563        -0.158843
 C         2.508175         0.596348         0.597954
 C         3.222837         0.313890        -0.813435
 C         1.966330         0.875449        -1.448567
 O         4.603622         0.375410        -0.728040
 C         4.586440        -1.076097        -0.315037
 C         3.093377        -1.158116        -0.949284
 O         1.876296        -1.454133        -0.276159
 H        -0.624958        -0.751640        -0.328788
 H        -0.013529        -0.465966         1.279898
 H        -0.442089         1.041675         0.111356
 H         2.340332         1.706408         0.731926
 H         2.791941        -0.003148         1.460662
 H         1.665925         1.865889        -1.213967
 H         1.669804         0.560536        -2.498162
 H         5.316384        -1.698246        -0.768062
 H         4.705633        -1.025137         0.746047
 H         3.260047        -1.412279        -1.950855
