19
Iteration:   156
 C        -0.046666        -0.019694         0.236490
 C         1.418097        -0.073249        -0.075867
 C         2.435506         0.566141         0.682181
 C         3.197637         0.444909        -0.682607
 C         1.902962         1.001424        -1.368879
 O         4.765600         0.209927        -0.724699
 C         4.573479        -1.265423        -0.493409
 C         3.115433        -1.026535        -0.990635
 O         1.870460        -1.364161        -0.327254
 H        -0.317034        -1.101395         0.408683
 H        -0.307058         0.606018         1.030044
 H        -0.613851         0.118562        -0.627447
 H         2.343768         1.651748         0.772648
 H         2.858151         0.052080         1.559055
 H         1.600959         2.032027        -1.203333
 H         1.646367         0.511157        -2.318911
 H         5.207484        -1.849437        -1.190263
 H         4.783886        -1.452806         0.534621
 H         3.036728        -1.206301        -2.073307
