19
Iteration:  4214charge 0 multiplicity 1
 C        -0.049225         0.032096         0.237750
 C         1.385483        -0.054836        -0.166052
 C         2.560685         0.597705         0.598086
 C         3.180034         0.305101        -0.742391
 C         1.923336         0.793782        -1.484652
 O         4.653005         0.393044        -0.814236
 C         4.589604        -1.025197        -0.322926
 C         3.179402        -1.185297        -0.889364
 O         1.839232        -1.461996        -0.238120
 H        -0.633910         0.231218        -0.748681
 H        -0.386387        -0.949027         0.752979
 H        -0.123936         0.813925         1.042592
 H         2.367159         1.730688         0.666464
 H         2.829754         0.189852         1.644811
 H         1.610982         1.866055        -1.237897
 H         1.617253         0.474745        -2.498293
 H         5.429481        -1.747192        -0.647073
 H         4.491413        -1.052749         0.745364
 H         3.260618        -1.592712        -1.906664
