19
Iteration:  1517
 C        -0.028710         0.040831         0.357270
 C         1.393729        -0.050027        -0.209601
 C         2.519049         0.480696         0.678798
 C         3.233313         0.366040        -0.630239
 C         1.942882         0.960919        -1.338154
 O         4.616141         0.349948        -0.706744
 C         4.574258        -1.194856        -0.433864
 C         3.128956        -1.157957        -0.995253
 O         1.866018        -1.406632        -0.507647
 H        -0.256709        -0.289022         1.396078
 H        -0.558833         1.156480         0.434860
 H        -0.602706        -0.580937        -0.310137
 H         2.472671         1.549949         0.943373
 H         2.801223        -0.209450         1.476103
 H         1.872081         2.073309        -1.101371
 H         1.859251         0.689354        -2.454636
 H         5.387016        -1.835509        -0.933562
 H         4.557474        -1.312029         0.672851
 H         3.160531        -1.261079        -2.103338
