19
Iteration:  1058
 C        -0.134300        -0.068582         0.238631
 C         1.328550         0.078141        -0.184374
 C         2.560316         0.455309         0.754988
 C         3.284396         0.333838        -0.587445
 C         2.050568         0.973938        -1.324139
 O         4.667170         0.316202        -0.746391
 C         4.559925        -1.199692        -0.456836
 C         3.099860        -1.081712        -1.104443
 O         1.813094        -1.368892        -0.392084
 H        -0.263807        -0.488761         1.261171
 H        -0.536173         0.990000         0.060671
 H        -0.649948        -0.720893        -0.384588
 H         2.643452         1.490450         1.220471
 H         2.704813        -0.177699         1.694524
 H         1.934541         1.977140        -1.085631
 H         1.967774         0.587428        -2.336245
 H         5.344291        -1.757317        -0.969840
 H         4.626817        -1.215774         0.620694
 H         3.119078        -1.310215        -2.162925
