19
Iteration:  2956charge 0 multiplicity 1
 C        -0.051743         0.023644         0.285223
 C         1.371133         0.000033        -0.162300
 C         2.575923         0.511667         0.648857
 C         3.198173         0.260582        -0.776206
 C         1.955400         0.784472        -1.343800
 O         4.689207         0.394656        -0.797589
 C         4.602435        -1.016690        -0.238362
 C         3.184376        -1.205757        -0.945917
 O         1.729174        -1.365643        -0.472545
 H        -0.198711        -0.901720         0.956099
 H        -0.215502         0.795455         0.956994
 H        -0.791571        -0.121565        -0.529181
 H         2.368659         1.594230         0.728610
 H         3.063498        -0.013050         1.523368
 H         1.735569         1.824082        -1.167738
 H         1.672897         0.606893        -2.320841
 H         5.521309        -1.586424        -0.473751
 H         4.361010        -1.071664         0.779754
 H         3.326635        -1.460490        -2.007478
