19
Iteration:   224charge 0 multiplicity 1
 C         0.017064         0.098112         0.252876
 C         1.354113        -0.039354        -0.266362
 C         2.537418         0.380417         0.691313
 C         3.213820         0.395883        -0.653177
 C         1.908932         0.954311        -1.227877
 O         4.698949         0.302028        -0.857457
 C         4.574033        -1.125873        -0.312865
 C         3.139097        -1.077422        -0.958851
 O         1.795344        -1.480207        -0.486135
 H        -0.083379        -0.631943         1.036949
 H         0.026317         1.168442         0.682905
 H        -0.870642        -0.102955        -0.411771
 H         2.446904         1.459476         1.084002
 H         2.954588        -0.189633         1.568917
 H         1.540864         1.989503        -0.763508
 H         1.683635         0.794690        -2.307038
 H         5.252150        -1.854401        -0.729035
 H         4.550884        -1.112306         0.812919
 H         3.224464        -1.284614        -2.048400
