19
Iteration:  4054
 C        -0.023549        -0.010406         0.234899
 C         1.395239        -0.055449        -0.163559
 C         2.514612         0.580470         0.589900
 C         3.256686         0.347759        -0.775622
 C         1.956190         0.853818        -1.463042
 O         4.610035         0.365082        -0.743669
 C         4.570137        -1.058119        -0.340371
 C         3.106419        -1.137522        -0.924234
 O         1.887905        -1.456263        -0.245700
 H        -0.658867        -0.645842        -0.348396
 H        -0.191920        -0.436638         1.267291
 H        -0.551409         0.961967         0.322268
 H         2.362281         1.639508         0.833149
 H         2.915407        -0.063509         1.390257
 H         1.667785         1.914705        -1.322005
 H         1.666366         0.724709        -2.480786
 H         5.300761        -1.741411        -0.801232
 H         4.696396        -1.115956         0.825747
 H         3.088642        -1.601465        -2.008840
