19
Iteration:  1601charge 0 multiplicity 1
 C        -0.109360        -0.021704         0.193521
 C         1.388701        -0.041560        -0.161062
 C         2.530437         0.464349         0.703063
 C         3.259228         0.414349        -0.617640
 C         1.986272         0.916313        -1.370702
 O         4.703689         0.323300        -0.724444
 C         4.555365        -1.191059        -0.515301
 C         3.084312        -1.024544        -0.983230
 O         1.825325        -1.372596        -0.284180
 H        -0.181255        -1.167009         0.446153
 H        -0.223271         0.630416         0.930725
 H        -0.829182         0.229240        -0.651738
 H         2.573557         1.446517         1.186221
 H         2.802127        -0.213680         1.517284
 H         1.715242         1.977966        -1.364039
 H         1.965260         0.393189        -2.369473
 H         5.140368        -1.779138        -1.244825
 H         4.878194        -1.396881         0.515770
 H         2.923732        -1.096881        -2.063500
