19
Iteration:  1673charge 0 multiplicity 1
 C        -0.046323         0.005461         0.342354
 C         1.370204         0.011839        -0.247258
 C         2.559249         0.311050         0.705783
 C         3.205438         0.458989        -0.667178
 C         1.998659         1.020100        -1.364819
 O         4.654391         0.290227        -0.803388
 C         4.615577        -1.095145        -0.317393
 C         3.069818        -1.053921        -0.962685
 O         1.806481        -1.450209        -0.473955
 H        -0.072965        -0.257622         1.335705
 H        -0.524016         0.987997         0.055208
 H        -0.624339        -0.732246        -0.231088
 H         2.525588         1.255466         1.263602
 H         2.981783        -0.409938         1.408219
 H         1.803817         2.079703        -1.196247
 H         1.800345         0.694002        -2.368747
 H         5.219639        -1.864048        -0.738517
 H         4.561163        -1.253715         0.778758
 H         3.249922        -1.413710        -2.000554
