19
Iteration:  4247charge 0 multiplicity 1
 C        -0.070381        -0.058831         0.416943
 C         1.291585         0.025379        -0.179385
 C         2.551099         0.615318         0.582573
 C         3.180081         0.357465        -0.737340
 C         1.874589         0.740690        -1.540403
 O         4.763517         0.246820        -0.831970
 C         4.629138        -1.041146        -0.213254
 C         3.261058        -1.058646        -0.848388
 O         1.794047        -1.360517        -0.430319
 H        -0.857252        -0.230832        -0.426182
 H        -0.211149        -0.976325         1.092385
 H        -0.456863         0.887970         0.910726
 H         2.335099         1.705768         0.641411
 H         2.917440         0.020220         1.536791
 H         1.547569         1.825923        -1.558409
 H         1.638776         0.278945        -2.524843
 H         5.398589        -1.849022        -0.500850
 H         4.485539        -0.983752         0.848454
 H         3.249127        -1.396548        -1.856071
