19
Iteration:  2542
 C        -0.188544         0.131357         0.137516
 C         1.270950         0.103638        -0.120912
 C         2.493791         0.498917         0.728457
 C         3.208190         0.262874        -0.681992
 C         1.895750         0.862359        -1.325945
 O         4.720606         0.339234        -0.785672
 C         4.728763        -1.115873        -0.443590
 C         3.201267        -1.174933        -0.926664
 O         1.886884        -1.492596        -0.305271
 H        -0.426686         0.201238         1.205685
 H        -0.717330         0.954635        -0.383206
 H        -0.634789        -0.851105        -0.293209
 H         2.404242         1.552012         0.757313
 H         2.857382        -0.087898         1.566849
 H         1.822364         1.960290        -1.039409
 H         1.644672         0.651288        -2.433519
 H         5.351353        -1.712391        -1.177016
 H         5.025854        -0.984240         0.617130
 H         3.202374        -1.630180        -2.020098
