19
Iteration:  3404
 C        -0.086006        -0.055168         0.283539
 C         1.367580         0.022561        -0.172279
 C         2.503453         0.643043         0.609231
 C         3.244198         0.379723        -0.711903
 C         1.910975         0.735000        -1.436704
 O         4.733707         0.353190        -0.781833
 C         4.600298        -1.065265        -0.321680
 C         3.093783        -1.197054        -0.883738
 O         1.819255        -1.394302        -0.365833
 H        -0.580641        -0.651808        -0.466400
 H         0.080919        -0.553628         1.326204
 H        -0.523672         0.965905         0.382720
 H         2.495591         1.745048         0.697865
 H         2.774188        -0.022381         1.415904
 H         1.660454         1.786926        -1.298392
 H         1.839687         0.429654        -2.532485
 H         5.457318        -1.555785        -0.735480
 H         4.761437        -1.034407         0.799744
 H         3.142349        -1.580519        -1.883971
