19
Iteration:  3414charge 0 multiplicity 1
 C         0.046233        -0.039566         0.297444
 C         1.351158        -0.035947        -0.210718
 C         2.518655         0.677687         0.553902
 C         3.219840         0.291848        -0.743622
 C         1.882266         0.854274        -1.359380
 O         4.719615         0.363278        -0.777905
 C         4.666217        -1.035622        -0.236982
 C         3.091566        -1.185060        -0.940821
 O         1.760652        -1.483839        -0.396680
 H        -0.586224        -0.780824        -0.211464
 H        -0.204553        -0.327851         1.396674
 H        -0.392591         0.973232         0.153238
 H         2.386684         1.778375         0.688378
 H         2.810641         0.387994         1.558162
 H         1.636756         1.904305        -1.253291
 H         1.645863         0.467462        -2.432319
 H         5.442484        -1.654174        -0.659015
 H         4.638972        -1.133985         0.887875
 H         3.195551        -1.596242        -1.916057
