19
Iteration:  1778charge 0 multiplicity 1
 C        -0.126496         0.029019         0.197076
 C         1.390700        -0.037757        -0.112055
 C         2.564162         0.494213         0.727345
 C         3.264843         0.368900        -0.638804
 C         1.943326         0.904318        -1.296110
 O         4.683682         0.325843        -0.817950
 C         4.647795        -1.106620        -0.367083
 C         3.099562        -1.159949        -0.939581
 O         1.787422        -1.409178        -0.490452
 H        -0.342738        -0.877903         0.862393
 H        -0.256607         0.841633         1.015546
 H        -0.745866         0.092495        -0.677027
 H         2.369858         1.560011         0.939948
 H         2.917907        -0.001818         1.648532
 H         1.778253         2.029446        -1.238337
 H         1.724823         0.526044        -2.342227
 H         5.281097        -1.764523        -1.020869
 H         4.775158        -1.300341         0.709531
 H         3.122326        -1.254769        -2.075083
