19
Iteration:  2606charge 0 multiplicity 1
 C        -0.114336        -0.075716         0.270939
 C         1.323411         0.011222        -0.202449
 C         2.486052         0.629171         0.647838
 C         3.251444         0.322893        -0.735974
 C         1.886397         0.880149        -1.360602
 O         4.753689         0.266935        -0.789866
 C         4.621921        -1.144549        -0.293071
 C         3.160124        -1.157031        -0.983875
 O         1.863920        -1.345034        -0.374707
 H        -0.167361        -0.695565         1.146118
 H        -0.444362         0.916660         0.676049
 H        -0.882366        -0.529242        -0.420015
 H         2.289805         1.710549         0.722001
 H         2.876357         0.394414         1.652308
 H         1.760232         1.978114        -1.266728
 H         1.723752         0.516041        -2.421415
 H         5.343566        -1.930988        -0.624588
 H         4.586843        -1.032891         0.843711
 H         3.224596        -1.250283        -2.051390
