19
Iteration:  2809charge 0 multiplicity 1
 C        -0.010162         0.054974         0.291834
 C         1.365884        -0.085212        -0.190826
 C         2.530800         0.562276         0.683746
 C         3.232149         0.305541        -0.704351
 C         1.969326         0.856346        -1.331917
 O         4.648511         0.363571        -0.731475
 C         4.693293        -1.017891        -0.333300
 C         3.111185        -1.147196        -0.943475
 O         1.714619        -1.509547        -0.491857
 H        -0.024301         0.166355         1.325849
 H        -0.542808         0.923549        -0.247318
 H        -0.657204        -0.756008        -0.011466
 H         2.164201         1.605586         0.777293
 H         3.014347        -0.007272         1.401674
 H         1.796772         1.875042        -1.111066
 H         1.677213         0.809289        -2.387219
 H         5.423341        -1.590521        -0.845136
 H         4.824428        -1.239266         0.769660
 H         3.368258        -1.379653        -2.019568
