19
Iteration:  3005charge 0 multiplicity 1
 C        -0.083967        -0.069844         0.178989
 C         1.385774        -0.011384        -0.144404
 C         2.447878         0.706939         0.728013
 C         3.332643         0.365420        -0.623434
 C         2.014001         0.786210        -1.318959
 O         4.699056         0.361681        -0.753525
 C         4.568733        -1.133000        -0.527559
 C         3.078882        -1.138461        -0.990026
 O         1.853657        -1.453021        -0.300277
 H        -0.429859        -0.132055         1.183380
 H        -0.556210         0.939840        -0.090911
 H        -0.444265        -0.970439        -0.330597
 H         2.311759         1.782769         0.705044
 H         2.590482         0.152007         1.649914
 H         1.721998         1.865254        -1.123439
 H         1.831840         0.811066        -2.495358
 H         5.245707        -1.797149        -1.059001
 H         4.530875        -1.470614         0.573446
 H         3.002509        -1.367249        -2.035924
