19
Iteration:    86charge 0 multiplicity 1
 C        -0.181082         0.099759         0.201405
 C         1.341620        -0.027136        -0.132596
 C         2.631623         0.429478         0.716080
 C         3.219533         0.295876        -0.638669
 C         1.898301         0.928972        -1.230338
 O         4.705992         0.301872        -0.854614
 C         4.705253        -1.042554        -0.415110
 C         3.133674        -1.125054        -0.927616
 O         1.787106        -1.440966        -0.479273
 H        -0.168965        -0.049368         1.232515
 H        -0.484792         1.165802         0.018694
 H        -0.863072        -0.727334        -0.068979
 H         2.562318         1.457050         1.131770
 H         2.918983        -0.281525         1.529708
 H         1.660547         1.979977        -1.076471
 H         1.696919         0.680345        -2.248653
 H         5.373214        -1.633652        -1.026551
 H         4.745799        -1.252984         0.689829
 H         3.250849        -1.403917        -1.983100
