19
Iteration:  1651charge 0 multiplicity 1
 C        -0.079834        -0.004036         0.354202
 C         1.393441        -0.008487        -0.170384
 C         2.532045         0.448994         0.721258
 C         3.250555         0.382430        -0.659016
 C         1.976215         0.880501        -1.339949
 O         4.692482         0.342601        -0.769543
 C         4.578202        -1.124940        -0.356233
 C         3.128850        -1.135363        -0.980553
 O         1.779274        -1.372847        -0.581396
 H        -0.131800        -0.512822         1.271670
 H        -0.208510         1.132072         0.441511
 H        -0.790493        -0.394461        -0.396224
 H         2.344360         1.439226         1.154153
 H         2.870188        -0.136234         1.603760
 H         1.754482         1.919489        -1.086084
 H         1.797559         0.569083        -2.357342
 H         5.368376        -1.708749        -0.815605
 H         4.519164        -1.284567         0.762366
 H         3.143167        -1.383607        -2.063128
