19
Iteration:  3471charge 0 multiplicity 1
 C        -0.058291        -0.001903         0.265246
 C         1.368500        -0.044709        -0.149138
 C         2.475455         0.629500         0.691395
 C         3.172002         0.323902        -0.671066
 C         1.962532         0.786474        -1.458127
 O         4.641691         0.356298        -0.797939
 C         4.718156        -1.066932        -0.403202
 C         3.162778        -1.160822        -0.860088
 O         1.797427        -1.394433        -0.370902
 H        -0.475071        -0.939671        -0.023083
 H        -0.086790         0.147122         1.348816
 H        -0.695800         0.762738        -0.292753
 H         2.298923         1.655408         0.953674
 H         2.896252         0.013045         1.488535
 H         1.703031         1.876601        -1.363100
 H         1.902761         0.405953        -2.458865
 H         5.446499        -1.592859        -1.025312
 H         4.815510        -1.288191         0.692598
 H         3.121201        -1.590229        -1.857241
