19
Iteration:  4209charge 0 multiplicity 1
 C        -0.081726         0.050050         0.225500
 C         1.418043        -0.091600        -0.132080
 C         2.533926         0.620251         0.550804
 C         3.138060         0.308344        -0.710559
 C         1.963171         0.797288        -1.437203
 O         4.630790         0.378065        -0.816860
 C         4.618359        -1.013658        -0.346296
 C         3.174629        -1.207975        -0.920986
 O         1.837031        -1.461711        -0.221875
 H        -0.562507         0.241063        -0.688206
 H        -0.332029        -0.881464         0.654571
 H        -0.251485         0.820542         0.961633
 H         2.421397         1.704466         0.703374
 H         2.779537         0.301391         1.520288
 H         1.737571         1.802467        -1.223226
 H         1.779120         0.427181        -2.442132
 H         5.357846        -1.697310        -0.694145
 H         4.646875        -1.010146         0.797938
 H         3.331544        -1.502359        -1.977572
