19
Iteration:  4985
 C        -0.115744         0.012852         0.099283
 C         1.425863        -0.065179        -0.222018
 C         2.517753         0.638261         0.749682
 C         3.234129         0.415934        -0.609045
 C         2.005823         0.808651        -1.325344
 O         4.639788         0.299123        -0.820437
 C         4.695605        -1.128489        -0.419307
 C         3.165080        -1.133058        -0.863112
 O         1.756557        -1.455608        -0.283197
 H        -0.628721        -0.821059        -0.317305
 H        -0.406293         0.227138         1.107669
 H        -0.464169         0.950626        -0.536550
 H         2.250782         1.697833         0.606120
 H         2.624040         0.160657         1.691326
 H         1.539455         1.843598        -1.207234
 H         1.784520         0.588708        -2.371175
 H         5.417107        -1.529421        -1.228441
 H         4.992485        -1.307463         0.683834
 H         2.978420        -1.476612        -1.941857
