19
Iteration:   325charge 0 multiplicity 1
 C        -0.053391         0.003117         0.166196
 C         1.382064        -0.001495        -0.107582
 C         2.586634         0.490577         0.802853
 C         3.237930         0.371950        -0.702370
 C         1.935593         0.917665        -1.262014
 O         4.689800         0.326138        -0.749015
 C         4.529682        -1.187951        -0.434625
 C         3.111551        -1.097716        -0.955950
 O         1.818364        -1.372261        -0.473539
 H        -0.092045        -0.490240         1.158386
 H        -0.426062         1.005145         0.249903
 H        -0.683542        -0.450330        -0.629031
 H         2.419194         1.493531         1.098571
 H         2.812587        -0.224860         1.532272
 H         1.878400         1.986139        -1.125016
 H         1.670224         0.479590        -2.322599
 H         5.091364        -1.674269        -1.251361
 H         4.827477        -1.528586         0.554306
 H         3.179780        -1.384482        -2.039744
