19
Iteration:  4251
 C        -0.093252        -0.086001         0.429171
 C         1.349458         0.000974        -0.201727
 C         2.519680         0.640815         0.626750
 C         3.202944         0.366355        -0.750682
 C         1.870504         0.767925        -1.535878
 O         4.772797         0.265167        -0.837696
 C         4.631500        -1.064541        -0.225218
 C         3.213190        -1.102422        -0.834718
 O         1.768463        -1.379951        -0.447544
 H        -0.795616        -0.220099        -0.329507
 H        -0.121020        -0.863571         1.161023
 H        -0.449103         0.876649         0.768733
 H         2.448974         1.701121         0.660415
 H         2.935772         0.391193         1.573938
 H         1.712289         1.828385        -1.558822
 H         1.730914         0.261614        -2.537916
 H         5.459971        -1.640444        -0.471233
 H         4.452049        -0.992448         0.871667
 H         3.207252        -1.362089        -1.931733
