19
Iteration:  3437
 C        -0.081707         0.041709         0.369331
 C         1.324400        -0.086138        -0.125849
 C         2.528276         0.551555         0.576754
 C         3.175260         0.385211        -0.782664
 C         1.903025         0.814250        -1.481337
 O         4.687248         0.320135        -0.810020
 C         4.553423        -1.047886        -0.198975
 C         3.178504        -1.138715        -0.896643
 O         1.925422        -1.433697        -0.473036
 H        -0.682092        -0.820588         0.228156
 H        -0.176430         0.144292         1.500768
 H        -0.587667         0.970502        -0.032681
 H         2.472946         1.540111         1.015295
 H         2.960029        -0.084351         1.346084
 H         1.641817         1.873046        -1.269996
 H         1.761076         0.580577        -2.572950
 H         5.397188        -1.593361        -0.562766
 H         4.620127        -1.016791         0.925051
 H         3.385620        -1.595354        -1.844060
