19
Iteration:  3972
 C        -0.148857         0.022884         0.221407
 C         1.346571        -0.007840        -0.194679
 C         2.497619         0.514638         0.628703
 C         3.224564         0.298067        -0.787471
 C         1.885572         0.833893        -1.478518
 O         4.721855         0.369832        -0.801068
 C         4.620851        -1.050135        -0.354696
 C         3.173979        -1.138613        -0.870628
 O         1.940911        -1.392012        -0.185159
 H        -0.794640         0.238711        -0.682215
 H        -0.445666        -0.954503         0.538140
 H        -0.460242         0.752082         0.976972
 H         2.474851         1.501408         1.153488
 H         2.715643        -0.226580         1.347473
 H         1.612442         1.850710        -1.300809
 H         1.816496         0.262657        -2.458365
 H         5.262816        -1.816420        -0.843287
 H         4.685895        -1.058284         0.708846
 H         2.902001        -1.441083        -1.885921
