19
Iteration:  3864
 C        -0.160232        -0.006806         0.113501
 C         1.385228        -0.063263        -0.068851
 C         2.561554         0.693680         0.730699
 C         3.209687         0.338089        -0.635238
 C         1.991188         0.719517        -1.342407
 O         4.616813         0.319110        -0.848768
 C         4.671577        -1.093680        -0.432748
 C         3.114495        -1.086602        -0.887980
 O         1.826039        -1.441125        -0.284230
 H        -0.503731        -0.944128        -0.341307
 H        -0.395282         0.228794         1.088515
 H        -0.292905         0.847889        -0.490763
 H         2.360956         1.733095         0.592479
 H         3.046402         0.484809         1.623439
 H         1.677246         1.731465        -1.325033
 H         1.848125         0.456358        -2.431348
 H         5.434657        -1.530967        -1.178401
 H         4.879510        -1.369012         0.642884
 H         3.141539        -1.279025        -2.024417
