19
Iteration:  4509charge 0 multiplicity 1
 C        -0.086427        -0.065688         0.092094
 C         1.370721         0.003644        -0.188933
 C         2.512115         0.529146         0.688729
 C         3.261104         0.430032        -0.642601
 C         1.953973         0.885157        -1.394130
 O         4.706719         0.264723        -0.837730
 C         4.613290        -1.097686        -0.478084
 C         3.062668        -1.075308        -0.876656
 O         1.870361        -1.385625        -0.128644
 H        -0.609479        -0.912020        -0.366079
 H        -0.346102        -0.064182         1.128036
 H        -0.600806         0.800180        -0.351513
 H         2.215441         1.524107         1.088695
 H         2.758691        -0.076431         1.567663
 H         1.545667         1.854596        -1.394979
 H         1.952877         0.465922        -2.372795
 H         5.135826        -1.778426        -1.151453
 H         4.942420        -1.398074         0.624290
 H         3.096743        -1.365332        -1.965206
