19
Iteration:  2151
 C        -0.121507        -0.036509         0.290057
 C         1.391250        -0.020928        -0.159927
 C         2.577022         0.512746         0.688233
 C         3.281313         0.338498        -0.730511
 C         1.946005         0.927474        -1.313603
 O         4.725098         0.286242        -0.746245
 C         4.552014        -1.097149        -0.323157
 C         3.153290        -1.128402        -0.968800
 O         1.747208        -1.389995        -0.531341
 H        -0.259961        -0.500940         1.209054
 H        -0.326528         1.014072         0.416337
 H        -0.839773        -0.417705        -0.485810
 H         2.576594         1.652219         0.845909
 H         3.064752        -0.038419         1.540585
 H         1.694183         1.886537        -1.051513
 H         1.604470         0.652295        -2.309735
 H         5.370337        -1.783822        -0.480547
 H         4.490374        -0.932087         0.762920
 H         3.284371        -1.400729        -2.059390
