19
Iteration:  1595
 C        -0.097637        -0.068014         0.156900
 C         1.405682         0.037303        -0.117369
 C         2.507911         0.452630         0.744807
 C         3.239406         0.429803        -0.596167
 C         2.030358         0.878332        -1.356748
 O         4.710779         0.321990        -0.769713
 C         4.594446        -1.140203        -0.530086
 C         3.078376        -1.088881        -1.001412
 O         1.800771        -1.383875        -0.274794
 H        -0.328333        -1.043268         0.455729
 H        -0.326324         0.725800         1.050214
 H        -0.729207         0.287116        -0.623700
 H         2.480897         1.552317         0.935772
 H         2.690738        -0.260975         1.554927
 H         1.615118         1.941879        -1.302887
 H         2.009838         0.659531        -2.445303
 H         5.236380        -1.803043        -1.165490
 H         4.634790        -1.574207         0.505529
 H         3.000353        -1.080759        -2.103654
