19
Iteration:  1391
 C        -0.083114         0.083502         0.195667
 C         1.358261        -0.062319        -0.117074
 C         2.593096         0.489210         0.751367
 C         3.212828         0.393837        -0.664685
 C         2.003754         0.844605        -1.347029
 O         4.696561         0.385031        -0.753784
 C         4.642568        -1.124301        -0.489235
 C         3.093707        -1.179557        -0.965836
 O         1.742196        -1.435012        -0.381243
 H        -0.426786        -0.959394         0.635711
 H        -0.205878         0.834587         0.967049
 H        -0.837030         0.277275        -0.754931
 H         2.459308         1.585576         1.094023
 H         2.790939        -0.053371         1.709796
 H         1.642986         1.903608        -1.151285
 H         1.953407         0.452885        -2.411224
 H         5.341305        -1.765180        -1.067052
 H         4.847618        -1.172391         0.590910
 H         3.128421        -1.220956        -2.068698
