19
Iteration:  3126
 C        -0.163674        -0.069174         0.367464
 C         1.267408         0.042575        -0.237669
 C         2.542668         0.592025         0.650183
 C         3.198673         0.383934        -0.752562
 C         1.886205         0.817317        -1.491664
 O         4.739659         0.291811        -0.725839
 C         4.603731        -1.133698        -0.272923
 C         3.206030        -1.087211        -0.928204
 O         1.905328        -1.368877        -0.419948
 H        -0.273055        -1.038566         0.864362
 H        -0.229061         0.597418         1.213864
 H        -1.025840         0.150797        -0.346783
 H         2.469821         1.623104         0.794469
 H         2.985015        -0.018570         1.480333
 H         1.556158         1.912220        -1.535642
 H         1.844508         0.271001        -2.439852
 H         5.285202        -1.823568        -0.831807
 H         4.790846        -1.201400         0.806231
 H         3.354346        -1.360890        -1.949844
