19
Iteration:  3812charge 0 multiplicity 1
 C        -0.165286        -0.013253         0.169646
 C         1.355269        -0.002874        -0.159426
 C         2.563832         0.639733         0.640718
 C         3.218746         0.332289        -0.695689
 C         2.003968         0.849494        -1.409964
 O         4.638691         0.343393        -0.847626
 C         4.632100        -1.061860        -0.404985
 C         3.143536        -1.214213        -0.846235
 O         1.825364        -1.448633        -0.224666
 H        -0.658751        -0.613755        -0.677898
 H        -0.351271        -0.470997         1.171260
 H        -0.396015         0.989700         0.393127
 H         2.505883         1.728798         0.745965
 H         2.962716         0.122025         1.525409
 H         1.741413         1.873923        -1.204008
 H         1.862346         0.546634        -2.467589
 H         5.441669        -1.680328        -0.905387
 H         4.790369        -1.096498         0.635893
 H         3.215796        -1.644711        -1.844745
