19
Iteration:  2822
 C        -0.094139         0.068897         0.205470
 C         1.367072        -0.088604        -0.184811
 C         2.570275         0.528419         0.740770
 C         3.189153         0.356931        -0.605208
 C         1.918183         0.854269        -1.331064
 O         4.648196         0.326850        -0.845034
 C         4.638993        -1.083297        -0.359273
 C         3.219681        -1.137016        -0.882072
 O         1.807102        -1.433448        -0.506333
 H        -0.145945        -0.008238         1.281462
 H        -0.520121         1.039867        -0.069910
 H        -0.696855        -0.828984        -0.185562
 H         2.486718         1.618563         1.027079
 H         2.725667         0.192360         1.804106
 H         1.606053         1.844649        -1.092514
 H         1.822013         0.390158        -2.289757
 H         5.366508        -1.654178        -0.877082
 H         4.776862        -1.036309         0.724624
 H         3.152423        -1.427418        -1.973196
