19
Iteration:  3047
 C        -0.155800        -0.032050         0.108112
 C         1.315610        -0.007861        -0.185062
 C         2.524001         0.477222         0.713144
 C         3.247831         0.402207        -0.685683
 C         1.920715         0.806368        -1.294098
 O         4.848234         0.363174        -0.800031
 C         4.636215        -1.132370        -0.488700
 C         3.127857        -1.087160        -0.868653
 O         1.801754        -1.372096        -0.243267
 H        -0.423707         0.049039         1.159068
 H        -0.670146         0.924087        -0.399553
 H        -0.753999        -0.907701        -0.163685
 H         2.503105         1.574959         1.160753
 H         2.682431        -0.349063         1.395609
 H         1.451001         1.802940        -1.344527
 H         1.652063         0.659697        -2.442657
 H         5.307116        -1.562845        -1.199870
 H         5.028473        -1.309731         0.562607
 H         3.003883        -1.428586        -1.875480
