19
Iteration:   835
 C        -0.083910        -0.038734         0.300289
 C         1.367901         0.018999        -0.162724
 C         2.524731         0.553274         0.670164
 C         3.193943         0.361905        -0.618485
 C         1.901203         1.005566        -1.300186
 O         4.748048         0.219904        -0.721024
 C         4.500608        -1.160865        -0.415643
 C         3.158871        -1.092741        -1.069478
 O         1.879186        -1.415712        -0.451230
 H        -0.076277        -0.558984         1.240113
 H        -0.585200         0.929015         0.428382
 H        -0.594171        -0.744709        -0.550903
 H         2.391257         1.647172         0.683821
 H         2.745394        -0.041853         1.583570
 H         1.960253         2.111499        -1.004753
 H         1.727309         0.904232        -2.379272
 H         5.389145        -1.661931        -0.889496
 H         4.616476        -1.446249         0.693915
 H         3.199744        -1.352922        -2.155874
