19
Iteration:  3460
 C        -0.046711         0.020440         0.268692
 C         1.361919         0.000567        -0.205779
 C         2.485559         0.459256         0.688889
 C         3.269081         0.396886        -0.678418
 C         1.924572         0.754134        -1.494048
 O         4.716826         0.375063        -0.811653
 C         4.604181        -1.050717        -0.370740
 C         3.210681        -1.132519        -0.906959
 O         1.742411        -1.414501        -0.329861
 H        -0.457020        -0.946481         0.290030
 H         0.069565         0.128019         1.353803
 H        -0.826302         0.810998         0.029475
 H         2.316573         1.487400         0.943933
 H         2.701935        -0.080124         1.620475
 H         1.669017         1.853913        -1.576711
 H         1.662588         0.228398        -2.394077
 H         5.547716        -1.524068        -0.657258
 H         4.600904        -0.912038         0.737340
 H         3.225086        -1.367275        -1.966424
