19
Iteration:   440charge 0 multiplicity 1
 C        -0.073403        -0.054396         0.145648
 C         1.359127         0.046310        -0.203060
 C         2.557643         0.528822         0.757652
 C         3.246620         0.360172        -0.624466
 C         1.976482         0.956131        -1.290719
 O         4.710666         0.274792        -0.740041
 C         4.615075        -1.198515        -0.581268
 C         3.077649        -1.072402        -0.917154
 O         1.801756        -1.378287        -0.342645
 H         0.021761        -0.657646         1.108491
 H        -0.572880         0.991915         0.315643
 H        -0.789830        -0.535012        -0.570855
 H         2.460761         1.644710         1.054993
 H         2.642144        -0.211361         1.613265
 H         1.683084         1.966804        -0.749093
 H         1.959719         0.723405        -2.359655
 H         5.189635        -1.775073        -1.295446
 H         4.696021        -1.561089         0.501511
 H         2.972261        -1.298151        -1.993269
