19
Iteration:   222
 C         0.020661         0.099020         0.251208
 C         1.353461        -0.049279        -0.276184
 C         2.532803         0.395629         0.697802
 C         3.217649         0.385112        -0.650004
 C         1.909452         0.968031        -1.237098
 O         4.700633         0.293887        -0.850768
 C         4.566711        -1.111161        -0.320100
 C         3.133887        -1.084506        -0.960606
 O         1.794042        -1.478451        -0.485026
 H        -0.058824        -0.650995         1.031570
 H         0.056777         1.083042         0.715676
 H        -0.832078        -0.063811        -0.356363
 H         2.450755         1.411369         1.160599
 H         2.958306        -0.176400         1.551670
 H         1.548361         1.952187        -0.821584
 H         1.658766         0.826269        -2.278354
 H         5.292583        -1.835902        -0.704134
 H         4.541273        -1.078526         0.772918
 H         3.221219        -1.329476        -2.031044
