19
Iteration:  3631
 C        -0.128744        -0.037715         0.256085
 C         1.240222         0.047206        -0.264822
 C         2.522430         0.688106         0.652460
 C         3.219456         0.357060        -0.722650
 C         1.847882         0.825659        -1.401431
 O         4.755051         0.273414        -0.761786
 C         4.684606        -1.173780        -0.382511
 C         3.170938        -1.125976        -0.890161
 O         1.893307        -1.427553        -0.296867
 H        -0.745734        -0.704461        -0.263525
 H        -0.041596        -0.357609         1.343523
 H        -0.716386         0.898854         0.204603
 H         2.379251         1.785764         0.841527
 H         2.863041         0.192849         1.583371
 H         1.495412         1.884402        -1.279579
 H         1.640855         0.587756        -2.453752
 H         5.323026        -1.756459        -1.018803
 H         4.966121        -1.201286         0.734039
 H         3.352783        -1.409434        -1.974692
