19
Iteration:  3120
 C        -0.174290        -0.051517         0.384521
 C         1.248404         0.014871        -0.206272
 C         2.514992         0.571903         0.625337
 C         3.196377         0.378076        -0.772423
 C         1.912185         0.831879        -1.474626
 O         4.805965         0.298197        -0.716575
 C         4.648138        -1.095714        -0.248193
 C         3.169933        -1.076670        -0.974776
 O         1.876850        -1.367126        -0.416882
 H        -0.320202        -1.047925         0.876199
 H        -0.291618         0.710484         1.192259
 H        -1.026852        -0.061099        -0.253994
 H         2.630149         1.692267         0.896665
 H         2.960297        -0.217764         1.233146
 H         1.476079         1.771852        -1.713334
 H         1.822244         0.371055        -2.476970
 H         5.325738        -1.849311        -0.701437
 H         4.686827        -1.177882         0.850258
 H         3.196321        -1.531760        -2.030593
