19
Iteration:  3531
 C        -0.063016        -0.010446         0.087378
 C         1.385750        -0.004719        -0.130201
 C         2.547591         0.586585         0.720709
 C         3.220906         0.423654        -0.661679
 C         1.955172         0.764582        -1.392835
 O         4.633794         0.361666        -0.906001
 C         4.555732        -1.111856        -0.424450
 C         3.104249        -1.081248        -0.770911
 O         1.915179        -1.439253        -0.220526
 H        -0.546516        -0.446230        -0.832291
 H        -0.245246        -0.872487         0.789169
 H        -0.534312         0.871579         0.449748
 H         2.297564         1.691443         0.790682
 H         2.985721         0.135747         1.622445
 H         1.642952         1.775081        -1.480412
 H         1.812236         0.179712        -2.351771
 H         5.116658        -1.817960        -1.117381
 H         4.655233        -1.314447         0.672387
 H         3.127474        -1.330285        -1.905767
