19
Iteration:  3614
 C        -0.021279         0.027181         0.347051
 C         1.421715        -0.086743        -0.114993
 C         2.404949         0.657282         0.575761
 C         3.259884         0.390812        -0.753622
 C         1.868027         0.808527        -1.451249
 O         4.703420         0.337327        -0.762957
 C         4.547084        -1.121421        -0.298293
 C         3.179150        -1.142442        -0.950134
 O         1.884810        -1.465015        -0.395186
 H        -0.785062        -0.402422        -0.401936
 H        -0.169143        -0.468882         1.279474
 H        -0.208999         1.115509         0.531130
 H         2.266959         1.723551         0.707376
 H         2.665920         0.328202         1.593876
 H         1.744954         1.902903        -1.309536
 H         1.619425         0.427878        -2.449241
 H         5.350365        -1.795616        -0.717327
 H         4.501617        -1.257273         0.757202
 H         3.260888        -1.508957        -1.976654
