19
Iteration:  1970charge 0 multiplicity 1
 C         0.012569         0.013023         0.369171
 C         1.378304         0.009784        -0.242094
 C         2.537052         0.619336         0.634285
 C         3.228073         0.306413        -0.670245
 C         1.961266         0.931973        -1.395444
 O         4.602038         0.292731        -0.648224
 C         4.500487        -1.173839        -0.357189
 C         3.102797        -1.069933        -1.033643
 O         1.897885        -1.484247        -0.468806
 H        -0.194405        -0.983142         0.939970
 H        -0.259179         0.798584         0.998672
 H        -0.690911        -0.009532        -0.488707
 H         2.543461         1.711026         0.739826
 H         2.976688         0.165850         1.525554
 H         1.636502         1.925071        -1.057846
 H         1.859110         0.702820        -2.514926
 H         5.194819        -1.923428        -0.866577
 H         4.623749        -1.277063         0.743194
 H         3.231723        -1.266177        -2.065418
