19
Iteration:   764charge 0 multiplicity 1
 C        -0.124277         0.170319         0.181733
 C         1.305655         0.058138        -0.126325
 C         2.485328         0.418138         0.758830
 C         3.271030         0.268901        -0.655399
 C         1.945439         0.901356        -1.225314
 O         4.676988         0.386935        -0.852749
 C         4.594683        -1.096800        -0.438933
 C         3.181971        -1.157705        -0.928346
 O         1.920393        -1.516978        -0.418117
 H        -0.534378        -0.818690         0.638080
 H        -0.400055         1.009679         0.918162
 H        -0.574669         0.279660        -0.749986
 H         2.256247         1.447885         0.728154
 H         2.691095        -0.260101         1.570401
 H         1.754554         1.968888        -0.999339
 H         1.616847         0.640571        -2.238513
 H         5.240817        -1.708347        -1.127970
 H         4.879188        -1.456733         0.575477
 H         3.168479        -1.347900        -2.033739
