19
Iteration:  2061
 C        -0.141928         0.072940         0.098104
 C         1.315516         0.024216        -0.183898
 C         2.552663         0.428321         0.764849
 C         3.235909         0.421312        -0.618809
 C         1.965716         0.908862        -1.338459
 O         4.644058         0.300581        -0.789188
 C         4.600605        -1.125511        -0.492490
 C         3.140469        -1.127026        -0.934927
 O         1.904500        -1.451953        -0.272572
 H        -0.363196        -0.172271         1.104076
 H        -0.408324         1.186743        -0.015165
 H        -0.693311        -0.460901        -0.613579
 H         2.482672         1.393746         1.354249
 H         3.195996        -0.327148         1.364065
 H         1.630586         1.936883        -1.116960
 H         1.820993         0.587074        -2.313432
 H         5.021161        -1.951702        -1.104497
 H         4.955038        -1.322444         0.556631
 H         3.122809        -1.262287        -2.014171
