19
Iteration:  1523charge 0 multiplicity 1
 C        -0.049190         0.072924         0.349885
 C         1.384195        -0.020233        -0.184104
 C         2.535514         0.417126         0.727035
 C         3.249264         0.356093        -0.637385
 C         1.971943         0.924892        -1.339105
 O         4.618944         0.372423        -0.742484
 C         4.533447        -1.184720        -0.426865
 C         3.106063        -1.114678        -1.005631
 O         1.870388        -1.410922        -0.484491
 H        -0.164378        -0.520214         1.275632
 H        -0.363360         1.013637         0.286543
 H        -0.538435        -0.486434        -0.514268
 H         2.594112         1.496014         0.874368
 H         2.781819        -0.315795         1.504647
 H         1.798378         1.979503        -1.254683
 H         1.818635         0.665452        -2.371871
 H         5.399773        -1.650327        -0.813718
 H         4.484645        -1.262667         0.656532
 H         3.151142        -1.295367        -2.077094
