19
Iteration:   947charge 0 multiplicity 1
 C        -0.102146        -0.089188         0.127677
 C         1.318642         0.087421        -0.014838
 C         2.530941         0.518718         0.796914
 C         3.284148         0.371066        -0.609174
 C         1.984150         0.967628        -1.324626
 O         4.770212         0.324797        -0.793335
 C         4.558726        -1.267862        -0.525552
 C         3.124462        -1.095821        -0.978600
 O         1.782914        -1.362074        -0.402694
 H        -0.270070        -1.010338         0.746146
 H        -0.455933         0.698173         0.809077
 H        -0.732392        -0.239739        -0.769078
 H         2.464043         1.663681         0.803252
 H         2.793932         0.046936         1.742136
 H         1.771376         1.984814        -1.203413
 H         1.695159         0.477376        -2.238724
 H         5.273528        -1.845484        -1.174137
 H         4.728385        -1.345013         0.546146
 H         3.066711        -1.309280        -2.043164
