19
Iteration:   178
 C        -0.143038        -0.069208         0.334025
 C         1.361328         0.077564        -0.195409
 C         2.644407         0.630641         0.682865
 C         3.290696         0.382864        -0.644721
 C         1.911244         0.854971        -1.340975
 O         4.742018         0.312744        -0.686705
 C         4.569056        -1.204417        -0.458465
 C         3.094227        -1.165133        -0.958762
 O         1.774284        -1.356036        -0.508186
 H        -0.275064        -1.149751         0.563778
 H        -0.235977         0.506530         1.221184
 H        -0.945573         0.084653        -0.328989
 H         2.524399         1.682009         1.019414
 H         2.900356        -0.040323         1.526192
 H         1.837434         1.937786        -1.249009
 H         1.703054         0.435759        -2.341121
 H         5.278706        -1.725995        -1.120570
 H         4.695259        -1.419221         0.589639
 H         3.091150        -1.277417        -2.045911
