19
Iteration:   593charge 0 multiplicity 1
 C        -0.065956         0.073177         0.136020
 C         1.434075        -0.001201        -0.089914
 C         2.572207         0.443197         0.838997
 C         3.216826         0.316985        -0.698278
 C         1.999553         0.912793        -1.310801
 O         4.650262         0.372276        -0.790869
 C         4.553107        -1.126004        -0.482286
 C         3.092898        -1.186642        -1.024568
 O         1.826191        -1.392061        -0.347194
 H        -0.288994        -0.888354         0.525882
 H        -0.344970         0.745798         0.964472
 H        -0.656508         0.024957        -0.707869
 H         2.504119         1.514769         1.002435
 H         2.743013        -0.163237         1.739404
 H         1.706208         1.972554        -1.263607
 H         1.715923         0.501851        -2.310234
 H         5.348276        -1.593292        -0.952255
 H         4.521195        -1.117532         0.596545
 H         3.066791        -1.443184        -2.073701
