19
Iteration:  1426charge 0 multiplicity 1
 C        -0.183626         0.067849         0.140938
 C         1.347269        -0.019721        -0.124744
 C         2.572439         0.456857         0.757780
 C         3.238669         0.313467        -0.661865
 C         1.927946         0.967504        -1.244715
 O         4.691151         0.287433        -0.898174
 C         4.683913        -1.115205        -0.433514
 C         3.147881        -1.074411        -0.899102
 O         1.841965        -1.441710        -0.380858
 H        -0.387053        -0.749745         0.934165
 H        -0.388744         1.036528         0.611697
 H        -0.840250        -0.066618        -0.829137
 H         2.463046         1.440835         1.158025
 H         2.745916        -0.340854         1.458690
 H         1.619607         1.999061        -0.928399
 H         1.733523         0.849301        -2.381983
 H         5.256158        -1.854521        -0.989143
 H         4.863429        -1.167009         0.669827
 H         3.162909        -1.412468        -1.918420
