19
Iteration:  4414
 C        -0.086098         0.010852         0.397256
 C         1.401914        -0.070973        -0.167320
 C         2.572154         0.714792         0.561383
 C         3.232993         0.418257        -0.755334
 C         1.928015         0.772589        -1.482833
 O         4.674840         0.346118        -0.768390
 C         4.531621        -1.126348        -0.209553
 C         3.161840        -1.184753        -0.939118
 O         1.856685        -1.492706        -0.440086
 H        -0.924074         0.247307        -0.273801
 H        -0.231315        -0.967753         0.883676
 H        -0.331810         0.930915         1.033141
 H         2.273873         1.783908         0.643375
 H         2.819162         0.329806         1.514972
 H         1.546898         1.835629        -1.262144
 H         1.894342         0.564424        -2.599189
 H         5.319808        -1.717929        -0.649523
 H         4.521389        -1.120683         0.879482
 H         3.270813        -1.535247        -1.952001
