19
Iteration:  2507
 C        -0.029039        -0.073618         0.178619
 C         1.367989        -0.038067        -0.149533
 C         2.519166         0.552443         0.738663
 C         3.230861         0.438054        -0.621352
 C         2.018567         0.831317        -1.395113
 O         4.724224         0.279813        -0.809273
 C         4.532825        -1.116884        -0.420863
 C         3.083148        -1.063426        -0.956813
 O         1.797925        -1.365832        -0.329325
 H        -0.147164        -0.326156         1.195863
 H        -0.544651         0.936118        -0.075183
 H        -0.514616        -0.863825        -0.400458
 H         2.323736         1.640914         0.829408
 H         2.939570         0.271046         1.673758
 H         1.831224         1.905007        -1.287090
 H         1.791836         0.550850        -2.487454
 H         5.152548        -1.906231        -0.750954
 H         4.648939        -1.209917         0.748447
 H         3.051963        -1.554085        -1.969652
