19
Iteration:   602charge 0 multiplicity 1
 C         0.001041         0.065531         0.139328
 C         1.385077        -0.020133        -0.131123
 C         2.491645         0.421684         0.829528
 C         3.239786         0.328766        -0.659827
 C         2.007108         0.871756        -1.296953
 O         4.592982         0.303529        -0.854823
 C         4.608491        -1.074628        -0.475112
 C         3.112798        -1.080188        -0.985192
 O         1.795398        -1.399111        -0.341491
 H        -0.260706        -0.914999         0.698919
 H        -0.279305         1.011989         0.774291
 H        -0.595680         0.228248        -0.713651
 H         2.369320         1.435966         1.171003
 H         3.002973        -0.190053         1.551628
 H         1.822422         1.978264        -1.034769
 H         1.870483         0.607685        -2.365801
 H         5.494076        -1.560790        -0.867268
 H         4.699815        -1.308884         0.643676
 H         3.074489        -1.488970        -2.025757
