19
Iteration:  1263charge 0 multiplicity 1
 C        -0.021454         0.068641         0.136796
 C         1.335169        -0.017180        -0.155728
 C         2.559449         0.465290         0.789052
 C         3.240030         0.404815        -0.583767
 C         1.950432         0.841971        -1.279691
 O         4.629335         0.277268        -0.736912
 C         4.679371        -1.133007        -0.532410
 C         3.104483        -1.075639        -0.923265
 O         1.768817        -1.419216        -0.419507
 H        -0.231030         0.061668         1.237229
 H        -0.345713         1.028705        -0.289673
 H        -0.665065        -0.572718        -0.377146
 H         2.477531         1.452628         1.137765
 H         3.087423        -0.183384         1.453089
 H         1.649759         1.935045        -1.245916
 H         1.699833         0.665902        -2.366181
 H         5.284529        -1.722105        -1.239833
 H         4.849118        -1.387792         0.536560
 H         3.218105        -1.245238        -2.008379
