19
Iteration:  4035
 C        -0.193158        -0.059937         0.169459
 C         1.298351        -0.018005        -0.180721
 C         2.567575         0.595325         0.704769
 C         3.190995         0.385573        -0.731601
 C         1.905166         0.817997        -1.420067
 O         4.781890         0.326823        -0.846871
 C         4.629979        -1.106900        -0.419391
 C         3.129816        -1.103374        -0.854709
 O         1.889772        -1.389901        -0.182278
 H        -0.771556        -0.334027        -0.762628
 H        -0.307799        -0.905735         0.877693
 H        -0.437516         1.020181         0.400837
 H         2.502177         1.702963         0.953212
 H         2.797806        -0.111002         1.490964
 H         1.521702         1.807788        -1.419126
 H         1.822586         0.316023        -2.396192
 H         5.274503        -1.725487        -0.942193
 H         4.830217        -1.177780         0.657038
 H         3.249164        -1.285289        -1.858705
