19
Iteration:   876charge 0 multiplicity 1
 C        -0.084589         0.100188         0.310994
 C         1.320677         0.030009        -0.180193
 C         2.542797         0.355370         0.757425
 C         3.196814         0.283770        -0.644896
 C         1.973609         0.931480        -1.315830
 O         4.651582         0.300127        -0.746084
 C         4.666378        -1.078352        -0.409561
 C         3.112814        -1.098055        -0.966167
 O         1.835742        -1.379861        -0.558380
 H        -0.130240        -0.068090         1.402855
 H        -0.587561         1.085541         0.060645
 H        -0.520504        -0.811151        -0.125714
 H         2.529522         1.384103         0.992315
 H         2.932218        -0.353433         1.456656
 H         1.769548         2.007824        -1.289995
 H         1.909102         0.290012        -2.212490
 H         5.247983        -1.787229        -0.931566
 H         4.666367        -1.137013         0.718551
 H         3.210364        -1.202160        -2.084742
