19
Iteration:  4863charge 0 multiplicity 1
 C        -0.128859        -0.007796         0.208944
 C         1.337808        -0.038486        -0.184247
 C         2.577222         0.633830         0.665533
 C         3.176948         0.329814        -0.718467
 C         1.928313         0.889500        -1.485723
 O         4.698769         0.306197        -0.779307
 C         4.667645        -1.047227        -0.317879
 C         3.186070        -1.180555        -0.829926
 O         1.786786        -1.453659        -0.317686
 H        -0.619316         0.305728        -0.763007
 H        -0.515545        -0.936223         0.618203
 H        -0.252295         0.796567         0.880673
 H         2.418032         1.693600         0.732320
 H         3.056295         0.188719         1.556113
 H         1.710398         1.947504        -1.395519
 H         1.717685         0.480257        -2.463589
 H         5.337768        -1.732220        -0.776267
 H         4.818094        -1.311914         0.756832
 H         3.185378        -1.600019        -1.907993
