19
Iteration:  4766
 C        -0.087691        -0.008302         0.350027
 C         1.359641         0.023679        -0.142777
 C         2.508512         0.552823         0.594993
 C         3.241030         0.380057        -0.737303
 C         1.864925         0.835762        -1.510796
 O         4.722509         0.258522        -0.697841
 C         4.547643        -1.157438        -0.277848
 C         3.182895        -1.053352        -0.959756
 O         1.873793        -1.326228        -0.401572
 H        -0.309950        -1.064991        -0.017093
 H        -0.146155        -0.071963         1.429149
 H        -0.773701         0.539969        -0.210297
 H         2.325147         1.528409         0.811428
 H         2.879988         0.056452         1.477592
 H         1.529138         1.857464        -1.564089
 H         1.768312         0.161378        -2.353537
 H         5.314488        -1.645428        -0.814504
 H         4.753804        -1.359336         0.748083
 H         3.285060        -1.366229        -1.972027
