19
Iteration:  4326
 C        -0.125526         0.030940         0.081992
 C         1.369008        -0.023594        -0.084886
 C         2.553441         0.675158         0.704901
 C         3.245301         0.324909        -0.597743
 C         1.834371         0.774934        -1.355022
 O         4.645238         0.349946        -0.853343
 C         4.716511        -1.134551        -0.455661
 C         3.137447        -1.156643        -0.843358
 O         1.877532        -1.455187        -0.300070
 H        -0.683135        -0.815611        -0.334598
 H        -0.399476         0.205441         1.169604
 H        -0.492308         0.990523        -0.426408
 H         2.348738         1.749503         0.774587
 H         2.858234         0.300303         1.670354
 H         1.749318         1.858520        -1.296383
 H         1.538338         0.220682        -2.326465
 H         5.318121        -1.715983        -1.078941
 H         5.087065        -1.234739         0.570980
 H         3.114785        -1.349068        -1.923844
