19
Iteration:  3394charge 0 multiplicity 1
 C        -0.147926        -0.058681         0.268024
 C         1.351176         0.038119        -0.188713
 C         2.531237         0.576586         0.667205
 C         3.252908         0.363658        -0.743492
 C         1.968904         0.746624        -1.527040
 O         4.668894         0.327451        -0.795264
 C         4.599464        -1.083315        -0.360116
 C         3.198849        -1.096123        -0.841395
 O         1.863057        -1.342056        -0.290749
 H        -0.776972        -0.538564        -0.445949
 H        -0.197880        -0.777617         1.161177
 H        -0.668919         0.880745         0.571870
 H         2.390309         1.610975         1.047990
 H         2.838934         0.015155         1.553249
 H         1.641661         1.787777        -1.567806
 H         1.722652         0.209163        -2.479017
 H         5.203942        -1.774736        -0.907929
 H         4.662222        -1.165487         0.763497
 H         3.191327        -1.425457        -1.873810
