19
Iteration:  1392charge 0 multiplicity 1
 C        -0.088570         0.092229         0.188051
 C         1.365604        -0.055661        -0.108244
 C         2.589802         0.492193         0.762364
 C         3.216746         0.376755        -0.666729
 C         2.010145         0.840633        -1.339042
 O         4.688480         0.390573        -0.760358
 C         4.649200        -1.122492        -0.493801
 C         3.091502        -1.171126        -0.968747
 O         1.741236        -1.434334        -0.384811
 H        -0.414129        -0.954707         0.662872
 H        -0.191366         0.783432         0.977816
 H        -0.810466         0.260284        -0.777374
 H         2.441473         1.545743         1.114788
 H         2.760413        -0.056300         1.694478
 H         1.645588         1.916516        -1.184264
 H         1.934087         0.403830        -2.416498
 H         5.342321        -1.773249        -1.055330
 H         4.822299        -1.182367         0.608570
 H         3.148777        -1.249284        -2.046988
