19
Iteration:  2153
 C        -0.123208        -0.030570         0.275477
 C         1.373467        -0.014739        -0.137832
 C         2.594465         0.519184         0.670270
 C         3.259551         0.342700        -0.722614
 C         1.968195         0.913399        -1.308093
 O         4.717982         0.290707        -0.753284
 C         4.547315        -1.097898        -0.317252
 C         3.150847        -1.125882        -0.959066
 O         1.745697        -1.399513        -0.542687
 H        -0.291766        -0.549850         1.287762
 H        -0.241210         0.998363         0.472860
 H        -0.834207        -0.397728        -0.523045
 H         2.486207         1.631253         0.859876
 H         3.095014         0.007227         1.535671
 H         1.756160         1.939470        -1.020953
 H         1.578926         0.642740        -2.331527
 H         5.406526        -1.773014        -0.514479
 H         4.557935        -0.992906         0.772859
 H         3.386484        -1.418642        -2.081016
