19
Iteration:  2750charge 0 multiplicity 1
 C        -0.046616        -0.105288         0.213841
 C         1.422331        -0.069409        -0.149955
 C         2.471235         0.652299         0.727203
 C         3.276060         0.388385        -0.683633
 C         1.921912         0.938962        -1.354562
 O         4.748291         0.288772        -0.774730
 C         4.549073        -1.148651        -0.366615
 C         3.171924        -1.098434        -0.927797
 O         1.757166        -1.423804        -0.441389
 H        -0.243486        -0.022409         1.348615
 H        -0.592299         0.746255        -0.159108
 H        -0.448481        -1.089436        -0.098949
 H         2.273644         1.712902         0.675507
 H         2.981937         0.602239         1.701405
 H         1.469147         1.984361        -1.097065
 H         1.889210         0.517676        -2.386397
 H         5.110769        -1.901014        -1.055392
 H         4.601806        -1.267154         0.721781
 H         3.250802        -1.395908        -1.954562
