19
Iteration:   659
 C         0.007011        -0.015207         0.254618
 C         1.419615         0.025358        -0.168668
 C         2.606770         0.445321         0.704173
 C         3.249311         0.356326        -0.635175
 C         1.906747         0.937159        -1.353376
 O         4.619049         0.321393        -0.665264
 C         4.545389        -1.166177        -0.477207
 C         3.087548        -1.090348        -0.987712
 O         1.805638        -1.378237        -0.438449
 H        -0.011361        -0.217207         1.294596
 H        -0.487166         0.920448        -0.024808
 H        -0.410835        -0.857348        -0.276996
 H         2.628175         1.512298         0.950609
 H         2.952673        -0.100256         1.571063
 H         1.619647         1.964837        -1.266684
 H         1.819745         0.579033        -2.423736
 H         5.246707        -1.696394        -1.032680
 H         4.540684        -1.327335         0.601695
 H         3.003964        -1.351966        -2.029759
