19
Iteration:  1605charge 0 multiplicity 1
 C        -0.104264        -0.018662         0.195369
 C         1.348256        -0.063649        -0.194643
 C         2.554953         0.492365         0.704378
 C         3.270268         0.395003        -0.638688
 C         1.966941         0.925279        -1.377149
 O         4.700201         0.317431        -0.696849
 C         4.529715        -1.214744        -0.514770
 C         3.091676        -0.993204        -0.952465
 O         1.853177        -1.377455        -0.313425
 H        -0.220626        -1.022293         0.486823
 H        -0.263263         0.698509         1.122876
 H        -0.760680         0.133773        -0.601856
 H         2.533273         1.404631         1.297636
 H         2.906991        -0.213324         1.460640
 H         1.720706         2.062095        -1.355685
 H         1.863008         0.340077        -2.345798
 H         5.157601        -1.742559        -1.305922
 H         4.948554        -1.297938         0.503955
 H         2.938249        -1.243337        -2.016721
