19
Iteration:  3334charge 0 multiplicity 1
 C        -0.181674         0.046779         0.125416
 C         1.370667         0.042592        -0.058505
 C         2.586690         0.614327         0.699792
 C         3.204855         0.330135        -0.723511
 C         1.888686         0.744353        -1.482941
 O         4.630229         0.343741        -0.859671
 C         4.695794        -1.039622        -0.406559
 C         3.169500        -1.175087        -0.775045
 O         1.892909        -1.448972        -0.229004
 H        -0.592863         0.455806        -0.879796
 H        -0.483800        -1.010872         0.193770
 H        -0.668812         0.607537         0.942592
 H         2.429864         1.683718         0.759542
 H         2.974698        -0.062712         1.461166
 H         1.421738         1.769268        -1.381999
 H         1.705750         0.298445        -2.475916
 H         5.481574        -1.736364        -0.843698
 H         4.847193        -1.093383         0.651988
 H         3.271254        -1.563843        -1.803445
