19
Iteration:   930
 C        -0.122894        -0.004654         0.178473
 C         1.385473         0.018787        -0.170852
 C         2.560014         0.532485         0.837807
 C         3.257983         0.347238        -0.616359
 C         1.979053         0.841733        -1.252524
 O         4.685583         0.295047        -0.778193
 C         4.550519        -1.180336        -0.526477
 C         3.089391        -1.056009        -1.026370
 O         1.862004        -1.339820        -0.378816
 H        -0.278220        -0.720258         0.994223
 H        -0.570774         0.991528         0.349145
 H        -0.436065        -0.370757        -0.782002
 H         2.496526         1.513875         1.277087
 H         2.744149        -0.322359         1.513477
 H         1.707885         1.930261        -1.256713
 H         1.804511         0.572591        -2.332841
 H         5.298009        -1.797606        -1.001926
 H         4.620125        -1.492859         0.539251
 H         3.029192        -1.151083        -2.127659
