19
Iteration:  4486charge 0 multiplicity 1
 C        -0.160512         0.048236         0.080838
 C         1.382220        -0.018377        -0.095755
 C         2.516969         0.636133         0.768974
 C         3.263456         0.356100        -0.689239
 C         1.878017         0.820646        -1.356993
 O         4.696735         0.344257        -0.859607
 C         4.622534        -1.167972        -0.413094
 C         3.111918        -1.157364        -0.930380
 O         1.937950        -1.430451        -0.245551
 H        -0.549354        -0.631850        -0.707298
 H        -0.525581        -0.387567         0.989667
 H        -0.639415         0.974188        -0.094823
 H         2.475695         1.718288         0.922668
 H         2.952952         0.171013         1.692531
 H         1.544930         1.796296        -1.171528
 H         1.619502         0.552814        -2.367477
 H         5.362969        -1.832485        -0.895250
 H         4.677549        -1.290980         0.718085
 H         3.125667        -1.475270        -2.030382
