19
Iteration:  1464charge 0 multiplicity 1
 C        -0.030441        -0.062579         0.272387
 C         1.387933         0.041482        -0.166529
 C         2.546793         0.532184         0.762650
 C         3.224425         0.408710        -0.676428
 C         1.968979         0.903842        -1.343748
 O         4.608284         0.251866        -0.714705
 C         4.534649        -1.205585        -0.436361
 C         3.089925        -1.051236        -1.022725
 O         1.891996        -1.361573        -0.464637
 H        -0.157129        -0.307274         1.315617
 H        -0.708963         0.918532         0.227127
 H        -0.540441        -0.814895        -0.264280
 H         2.818632         1.571779         1.100944
 H         2.897584        -0.053325         1.638007
 H         1.837362         1.979572        -1.242371
 H         1.693268         0.461907        -2.281990
 H         5.373959        -1.669878        -1.014495
 H         4.581995        -1.487313         0.623341
 H         3.099196        -1.220279        -2.164817
