19
Iteration:  2560charge 0 multiplicity 1
 C        -0.075866         0.108699         0.140490
 C         1.381282        -0.083834        -0.136871
 C         2.541273         0.532916         0.698235
 C         3.253988         0.329707        -0.664094
 C         2.009570         0.800957        -1.353617
 O         4.596812         0.404121        -0.765666
 C         4.688419        -1.044942        -0.457278
 C         3.115996        -1.220365        -0.901926
 O         1.792272        -1.451098        -0.330894
 H        -0.380466         0.279059         1.145661
 H        -0.415025         1.080947        -0.351840
 H        -0.714702        -0.677152        -0.198779
 H         2.587899         1.623715         1.055890
 H         2.714203        -0.068246         1.608611
 H         1.798484         1.828238        -1.186083
 H         1.654031         0.429129        -2.330029
 H         5.434807        -1.431141        -1.088682
 H         4.682051        -1.409795         0.609911
 H         3.006606        -1.559570        -1.875313
