19
Iteration:   514
 C        -0.078879        -0.027172         0.357235
 C         1.346615        -0.060733        -0.155768
 C         2.589151         0.473763         0.731519
 C         3.235975         0.364249        -0.682175
 C         1.974525         1.000923        -1.404580
 O         4.671830         0.278287        -0.715333
 C         4.563159        -1.116177        -0.392741
 C         3.111727        -1.161034        -1.023308
 O         1.783545        -1.373011        -0.501535
 H        -0.181499        -0.168604         1.473056
 H        -0.436458         1.049435         0.222541
 H        -0.697210        -0.430584        -0.372237
 H         2.735654         1.452080         1.184664
 H         2.932971        -0.213949         1.504335
 H         1.696192         2.127312        -1.214488
 H         1.940867         0.779721        -2.487328
 H         5.448691        -1.573300        -0.857413
 H         4.744376        -1.326885         0.692569
 H         3.186252        -1.446060        -2.100743
