19
Iteration:  1860
 C        -0.125022        -0.025103         0.251271
 C         1.328461         0.132289        -0.143533
 C         2.516742         0.480666         0.682877
 C         3.262360         0.425103        -0.609781
 C         1.956018         0.879152        -1.352905
 O         4.690094         0.264293        -0.711863
 C         4.583926        -1.177789        -0.481205
 C         3.175589        -1.070658        -0.912750
 O         1.862233        -1.403970        -0.429516
 H        -0.262039        -0.455925         1.254010
 H        -0.568858         0.889780         0.189740
 H        -0.759239        -0.623400        -0.453265
 H         2.531503         1.545883         1.005653
 H         2.837996        -0.234750         1.455619
 H         1.600214         1.874257        -1.558381
 H         1.985813         0.403870        -2.368805
 H         5.156053        -1.682108        -1.298901
 H         4.821858        -1.575654         0.533231
 H         3.014229        -1.203049        -1.957408
