19
Iteration:  2225charge 0 multiplicity 1
 C        -0.082379        -0.011232         0.073408
 C         1.399625        -0.004888        -0.068421
 C         2.534751         0.668662         0.722049
 C         3.170252         0.336420        -0.647736
 C         1.984581         0.955817        -1.354501
 O         4.625285         0.264970        -0.727012
 C         4.627668        -1.175360        -0.491041
 C         3.123961        -1.142612        -0.901436
 O         1.854264        -1.447148        -0.344851
 H        -0.427396        -0.931118         0.407509
 H        -0.184283         0.667667         1.030358
 H        -0.722558         0.333405        -0.801575
 H         2.263218         1.697363         0.954599
 H         2.994239         0.154990         1.569140
 H         1.937861         2.053106        -1.217369
 H         1.757163         0.571409        -2.339550
 H         5.245768        -1.643112        -1.215428
 H         4.862998        -1.717847         0.463695
 H         3.066213        -1.371512        -1.942029
