19
Iteration:  3838charge 0 multiplicity 1
 C        -0.173755         0.046695         0.081575
 C         1.337595         0.047868        -0.164484
 C         2.391080         0.500519         0.739629
 C         3.229119         0.385265        -0.703256
 C         1.945585         0.781143        -1.392101
 O         4.703657         0.336761        -0.902719
 C         4.684211        -1.126854        -0.484700
 C         3.164356        -1.107814        -0.816766
 O         1.913036        -1.439278        -0.118609
 H        -0.430999        -0.838928        -0.473819
 H        -0.360007         0.117128         1.226822
 H        -0.431344         1.154664        -0.219020
 H         2.298836         1.578377         1.039767
 H         2.809484        -0.208379         1.534716
 H         1.573289         1.868638        -1.338942
 H         1.761874         0.513110        -2.425637
 H         5.301645        -1.668400        -1.145155
 H         5.064167        -1.233665         0.592810
 H         3.177428        -1.541243        -1.821344
