19
Iteration:   686charge 0 multiplicity 1
 C        -0.123549        -0.113993         0.395909
 C         1.336353        -0.037332        -0.155928
 C         2.478107         0.552791         0.614114
 C         3.318208         0.411938        -0.659773
 C         1.958489         1.010831        -1.420023
 O         4.783668         0.226858        -0.677816
 C         4.543844        -1.209695        -0.464205
 C         3.105558        -1.012838        -0.991843
 O         1.845842        -1.374375        -0.447215
 H        -0.193015        -0.330011         1.504315
 H        -0.595409         0.852059         0.164000
 H        -0.519108        -1.010201        -0.097739
 H         2.364901         1.616293         0.980573
 H         2.758013        -0.062106         1.517530
 H         1.723565         2.081663        -1.156077
 H         1.892041         0.881787        -2.471502
 H         5.240972        -1.922273        -1.055955
 H         4.432583        -1.320821         0.612813
 H         2.993817        -1.223056        -2.076981
