19
Iteration:  1549charge 0 multiplicity 1
 C        -0.147558         0.053811         0.196681
 C         1.386915        -0.067453        -0.136004
 C         2.591473         0.433775         0.781350
 C         3.259334         0.406808        -0.649819
 C         1.880764         0.912896        -1.251128
 O         4.739896         0.295591        -0.854082
 C         4.630290        -1.085219        -0.438021
 C         3.112993        -1.135290        -0.917027
 O         1.782938        -1.388310        -0.440584
 H        -0.403763        -0.899341         0.668825
 H        -0.433977         1.072615         0.574234
 H        -0.585503         0.019103        -0.776040
 H         2.530552         1.397739         1.259164
 H         2.941008        -0.392046         1.391296
 H         1.674439         2.036724        -1.127397
 H         1.613076         0.690521        -2.361081
 H         5.436839        -1.765033        -0.889913
 H         4.742788        -1.095540         0.669065
 H         3.117956        -1.389668        -1.985407
