19
Iteration:  4952charge 0 multiplicity 1
 C        -0.156192         0.040904         0.209554
 C         1.355991         0.052762        -0.202509
 C         2.484799         0.502088         0.660225
 C         3.298116         0.328481        -0.728457
 C         1.941417         0.809030        -1.432737
 O         4.691219         0.312532        -0.802986
 C         4.634892        -1.063362        -0.320268
 C         3.172056        -1.096926        -0.923768
 O         1.854535        -1.428243        -0.270572
 H        -0.671630        -0.522068        -0.570942
 H        -0.459727        -0.389048         1.159867
 H        -0.618545         1.126687         0.151453
 H         2.393917         1.536266         1.070968
 H         2.555059        -0.151477         1.518455
 H         1.683151         1.905508        -1.288048
 H         1.710806         0.316694        -2.365747
 H         5.572311        -1.597941        -0.696291
 H         4.718205        -1.299565         0.789653
 H         3.185062        -1.524320        -1.995615
