19
Iteration:  1672charge 0 multiplicity 1
 C        -0.039948         0.009405         0.343355
 C         1.368621         0.006174        -0.245037
 C         2.560248         0.311463         0.708934
 C         3.198892         0.461938        -0.667013
 C         2.003395         1.012221        -1.364195
 O         4.651515         0.288040        -0.802399
 C         4.614994        -1.089249        -0.316914
 C         3.067149        -1.048276        -0.962928
 O         1.806057        -1.452785        -0.477519
 H        -0.074475        -0.293040         1.315403
 H        -0.558059         1.000754         0.062399
 H        -0.611990        -0.704368        -0.207212
 H         2.568165         1.253761         1.249305
 H         2.970587        -0.418453         1.399701
 H         1.789719         2.123528        -1.221681
 H         1.796111         0.698849        -2.412761
 H         5.204649        -1.904955        -0.738281
 H         4.577454        -1.263349         0.789775
 H         3.302450        -1.394401        -1.977573
