19
Iteration:   894
 C        -0.083771         0.101911         0.265370
 C         1.304595        -0.074417        -0.169097
 C         2.514604         0.457133         0.718888
 C         3.254865         0.320801        -0.687858
 C         1.986957         0.951421        -1.269245
 O         4.720263         0.382110        -0.761135
 C         4.636145        -1.156217        -0.422642
 C         3.167409        -1.174846        -1.027917
 O         1.766910        -1.450087        -0.469305
 H        -0.269928        -0.052310         1.374790
 H        -0.498851         1.074785        -0.045045
 H        -0.784514        -0.558406        -0.112021
 H         2.419268         1.481225         1.263246
 H         2.608350        -0.186143         1.637177
 H         1.860746         1.885520        -0.764781
 H         1.709096         1.010785        -2.361579
 H         5.496449        -1.486110        -1.033662
 H         4.706137        -1.285884         0.619026
 H         3.159202        -1.486475        -2.046465
