19
Iteration:  2387
 C        -0.103994        -0.059451         0.125331
 C         1.349824         0.044962        -0.157361
 C         2.540493         0.541857         0.717595
 C         3.253391         0.387364        -0.637027
 C         1.952536         0.896063        -1.322480
 O         4.732317         0.291174        -0.825391
 C         4.628909        -1.143743        -0.447424
 C         3.113801        -1.106682        -0.894532
 O         1.789089        -1.370608        -0.284639
 H        -0.471600        -0.807377         0.754372
 H        -0.588008         0.975660         0.327588
 H        -0.610150        -0.249901        -0.823982
 H         2.654660         1.537424         1.056040
 H         2.820497        -0.155636         1.440117
 H         1.667467         1.954480        -1.189721
 H         1.853689         0.480712        -2.348690
 H         5.250953        -1.762232        -1.023810
 H         4.852145        -1.389440         0.620541
 H         2.979169        -1.608553        -1.914284
