19
Iteration:  2079charge 0 multiplicity 1
 C        -0.138336         0.090238         0.138177
 C         1.341554        -0.015850        -0.113541
 C         2.482689         0.556477         0.770788
 C         3.279463         0.313144        -0.632074
 C         1.939069         0.875324        -1.308753
 O         4.703048         0.311449        -0.730844
 C         4.687328        -1.195517        -0.577483
 C         3.115904        -1.083665        -0.897066
 O         1.836636        -1.408103        -0.364866
 H        -0.287164        -0.120764         1.303049
 H        -0.612501         0.961214        -0.265057
 H        -0.494373        -0.795059        -0.437811
 H         2.455380         1.614061         0.927497
 H         2.517889        -0.127712         1.609522
 H         1.790900         2.007905        -1.202512
 H         1.664763         0.437213        -2.353690
 H         5.429096        -1.618185        -1.349337
 H         4.868524        -1.536225         0.455784
 H         3.111370        -1.333029        -1.968288
