19
Iteration:  1588charge 0 multiplicity 1
 C        -0.077534        -0.042017         0.167130
 C         1.344771         0.059489        -0.130403
 C         2.509714         0.516102         0.801356
 C         3.254731         0.357511        -0.602299
 C         2.042474         0.902641        -1.336713
 O         4.709265         0.307102        -0.799862
 C         4.594089        -1.127349        -0.560641
 C         3.091400        -1.113803        -0.975109
 O         1.819789        -1.407111        -0.319822
 H        -0.517654        -1.037943         0.500698
 H        -0.456728         0.525679         1.001272
 H        -0.638216         0.275153        -0.806142
 H         2.317515         1.598769         1.036814
 H         2.733015        -0.161260         1.667265
 H         1.705970         1.859182        -1.085143
 H         1.928414         0.708736        -2.363343
 H         5.373567        -1.596321        -1.099504
 H         4.539612        -1.395714         0.507490
 H         3.007787        -1.381658        -2.060374
