19
Iteration:  3940charge 0 multiplicity 1
 C        -0.064678         0.014394         0.385590
 C         1.422256        -0.116889        -0.144789
 C         2.537340         0.716186         0.545736
 C         3.223705         0.349349        -0.707315
 C         1.920029         0.768026        -1.414288
 O         4.665712         0.344621        -0.749522
 C         4.622111        -1.043473        -0.255772
 C         3.146196        -1.148084        -0.873896
 O         1.776988        -1.467297        -0.521074
 H        -0.714269        -0.126555        -0.507264
 H        -0.092898        -0.840175         0.964735
 H        -0.194205         0.964050         0.798147
 H         2.244662         1.762556         0.598294
 H         2.951179         0.357536         1.438770
 H         1.606396         1.805015        -1.401737
 H         1.791815         0.286056        -2.477758
 H         5.289445        -1.888610        -0.627893
 H         4.592989        -1.032816         0.844761
 H         3.325113        -1.376958        -1.984426
