19
Iteration:  1597
 C        -0.101668        -0.059926         0.166873
 C         1.410000         0.013654        -0.125510
 C         2.510760         0.448149         0.724642
 C         3.243378         0.432083        -0.599870
 C         2.015760         0.891016        -1.365308
 O         4.708798         0.324042        -0.756964
 C         4.587690        -1.156107        -0.526317
 C         3.078523        -1.071861        -0.999893
 O         1.804456        -1.378685        -0.272316
 H        -0.260434        -1.092308         0.440237
 H        -0.289038         0.740269         1.031357
 H        -0.797304         0.292750        -0.653314
 H         2.526370         1.558137         1.005993
 H         2.716704        -0.271167         1.563812
 H         1.661642         1.891114        -1.340640
 H         2.011976         0.601081        -2.376846
 H         5.168412        -1.789340        -1.156536
 H         4.713190        -1.544953         0.516350
 H         2.973705        -1.048932        -2.109405
