19
Iteration:  4340charge 0 multiplicity 1
 C        -0.026531         0.029835         0.124819
 C         1.384288        -0.033821        -0.136052
 C         2.436843         0.707476         0.747348
 C         3.193222         0.344799        -0.680233
 C         2.020545         0.837593        -1.331018
 O         4.586493         0.289630        -0.875218
 C         4.705980        -1.097012        -0.463166
 C         3.148618        -1.187386        -0.863468
 O         1.834465        -1.476038        -0.238815
 H        -0.533220        -0.814999        -0.398864
 H        -0.260214        -0.119722         1.202909
 H        -0.491214         0.890606        -0.465871
 H         2.309258         1.865794         0.879195
 H         2.802871         0.261055         1.707539
 H         1.391745         1.777766        -1.209746
 H         1.850765         0.585678        -2.422105
 H         5.466971        -1.517568        -1.157316
 H         4.824590        -1.128402         0.625901
 H         3.116398        -1.616974        -1.968274
