19
Iteration:  3136charge 0 multiplicity 1
 C        -0.075599        -0.072361         0.319086
 C         1.390824         0.020418        -0.211486
 C         2.524081         0.646921         0.610952
 C         3.266544         0.381564        -0.665992
 C         1.867687         0.789306        -1.470444
 O         4.651163         0.305472        -0.749552
 C         4.570027        -1.150876        -0.337940
 C         3.171049        -1.086625        -0.851976
 O         1.884735        -1.411703        -0.423945
 H        -0.250488        -1.123263         0.549334
 H        -0.159991         0.624996         1.179912
 H        -0.822547         0.282540        -0.462055
 H         2.245694         1.664484         0.796799
 H         2.702518         0.314108         1.634291
 H         1.791784         1.912333        -1.342356
 H         1.595841         0.378436        -2.485476
 H         5.312361        -1.694929        -0.919840
 H         4.705481        -1.280084         0.753951
 H         3.300610        -1.296550        -1.895474
