19
Iteration:  2491
 C        -0.004614        -0.084534         0.241687
 C         1.389429         0.030525        -0.124214
 C         2.541018         0.700064         0.644144
 C         3.260409         0.322111        -0.723301
 C         1.993064         0.910928        -1.375520
 O         4.673014         0.296982        -0.748540
 C         4.501085        -1.170435        -0.329200
 C         3.121406        -1.153398        -0.968230
 O         1.817122        -1.427051        -0.409256
 H        -0.276595        -0.649809         1.242613
 H        -0.524489         0.811276         0.487659
 H        -0.561505        -0.653683        -0.535659
 H         2.354221         1.815753         0.865140
 H         2.731935         0.172770         1.656840
 H         1.647687         1.969427        -1.334336
 H         1.808287         0.497604        -2.359926
 H         5.382022        -1.671990        -0.855402
 H         4.470949        -1.178825         0.753296
 H         3.076247        -1.272756        -2.040603
