19
Iteration:   817charge 0 multiplicity 1
 C        -0.082751        -0.084153         0.232799
 C         1.317057         0.118457        -0.126518
 C         2.507733         0.589748         0.753172
 C         3.265485         0.354783        -0.766852
 C         1.988352         1.004994        -1.323889
 O         4.660196         0.296409        -0.694592
 C         4.581623        -1.259746        -0.473270
 C         3.090631        -1.102090        -0.985147
 O         1.921433        -1.456277        -0.421795
 H        -0.186162        -0.844914         1.018034
 H        -0.493847         0.834118         0.608493
 H        -0.756659        -0.204218        -0.569504
 H         2.480901         1.696380         1.187587
 H         2.812030        -0.151242         1.588013
 H         1.604716         2.030792        -1.226816
 H         1.623925         0.793870        -2.308439
 H         5.353377        -1.951958        -0.936319
 H         4.712087        -1.393904         0.570283
 H         3.098863        -1.291325        -2.052779
