19
Iteration:  2230charge 0 multiplicity 1
 C        -0.052267         0.013440         0.100451
 C         1.447331        -0.030411        -0.132828
 C         2.505643         0.673337         0.735794
 C         3.192556         0.329834        -0.641119
 C         1.956355         0.924576        -1.309170
 O         4.640061         0.257038        -0.728058
 C         4.616906        -1.173434        -0.483505
 C         3.066703        -1.140049        -0.915347
 O         1.822724        -1.422429        -0.339655
 H        -0.375068        -1.077680         0.357832
 H        -0.339755         0.573975         0.924038
 H        -0.545375         0.191623        -0.835658
 H         2.378866         1.777247         0.923156
 H         3.057325         0.230543         1.600710
 H         2.001712         2.016774        -1.249453
 H         1.730643         0.587100        -2.341027
 H         5.314303        -1.611831        -1.275907
 H         4.917860        -1.507970         0.518503
 H         3.219491        -1.280220        -2.040342
