19
Iteration:  1394charge 0 multiplicity 1
 C        -0.103822         0.102326         0.168873
 C         1.382500        -0.039015        -0.092168
 C         2.578150         0.499285         0.783985
 C         3.229678         0.336095        -0.666318
 C         2.019069         0.834402        -1.325670
 O         4.670372         0.399311        -0.776056
 C         4.660635        -1.117235        -0.499963
 C         3.089783        -1.147670        -0.970795
 O         1.742197        -1.433244        -0.393493
 H        -0.376646        -0.891589         0.691903
 H        -0.181217         0.719416         1.024920
 H        -0.707685         0.221382        -0.761312
 H         2.404238         1.463473         1.141424
 H         2.717263        -0.085068         1.657904
 H         1.666938         1.909203        -1.265902
 H         1.883105         0.334220        -2.380666
 H         5.346434        -1.774642        -1.035323
 H         4.764695        -1.215821         0.625804
 H         3.177078        -1.329245        -2.020750
