19
Iteration:   619charge 0 multiplicity 1
 C        -0.129799         0.125506         0.198801
 C         1.321464        -0.090223        -0.167948
 C         2.542793         0.442683         0.755437
 C         3.246260         0.368660        -0.585024
 C         1.965555         0.962129        -1.276704
 O         4.705804         0.315921        -0.930472
 C         4.657810        -1.122941        -0.445235
 C         3.138687        -1.117258        -0.826660
 O         1.817349        -1.471666        -0.436088
 H        -0.549426        -0.601101         0.930711
 H        -0.281997         1.076603         0.635388
 H        -0.878506        -0.103134        -0.671370
 H         2.342269         1.478426         1.157247
 H         2.596613        -0.347168         1.542957
 H         1.613754         1.944745        -1.021443
 H         1.804323         0.745361        -2.326064
 H         5.314826        -1.821962        -1.109614
 H         5.058121        -1.060773         0.553469
 H         3.268068        -1.222111        -1.921358
