19
Iteration:  2092
 C        -0.112189        -0.032032         0.200562
 C         1.369142         0.014493        -0.117823
 C         2.428518         0.606719         0.742177
 C         3.260105         0.340442        -0.609472
 C         2.049404         0.841411        -1.295496
 O         4.775175         0.313313        -0.691151
 C         4.657635        -1.134940        -0.583566
 C         3.161261        -1.175092        -1.025934
 O         1.698020        -1.396811        -0.377135
 H        -0.435230         0.017358         1.300634
 H        -0.539053         0.939708        -0.199796
 H        -0.673177        -0.811838        -0.209020
 H         2.157369         1.676931         0.854685
 H         2.967444         0.339875         1.657357
 H         1.818727         1.978170        -1.175895
 H         1.797018         0.560832        -2.338480
 H         5.320106        -1.811602        -1.232036
 H         4.855402        -1.363014         0.496190
 H         2.965121        -1.302681        -2.040418
