19
Iteration:   399
 C        -0.061338         0.008807         0.256069
 C         1.390512        -0.036330        -0.194327
 C         2.571988         0.514323         0.705814
 C         3.244182         0.399476        -0.666727
 C         1.949173         0.848511        -1.314026
 O         4.748727         0.301239        -0.671038
 C         4.538384        -1.167484        -0.454454
 C         3.105275        -1.058076        -1.009597
 O         1.751484        -1.400734        -0.451433
 H        -0.199015        -0.882971         0.738882
 H        -0.288770         0.717138         1.060732
 H        -0.753858         0.300518        -0.553130
 H         2.496761         1.599336         0.922082
 H         3.057773        -0.005694         1.559030
 H         1.611316         1.865266        -1.143818
 H         1.669987         0.615630        -2.308872
 H         5.253884        -1.789459        -0.963562
 H         4.700788        -1.343414         0.612974
 H         3.158087        -1.173351        -2.097622
