19
Iteration:  3212
 C        -0.119206        -0.035282         0.150489
 C         1.370106        -0.095269        -0.092238
 C         2.501659         0.630615         0.660207
 C         3.217475         0.300636        -0.691295
 C         2.028238         0.775273        -1.351509
 O         4.657763         0.361604        -0.878993
 C         4.703190        -1.005094        -0.398035
 C         3.087186        -1.182132        -0.840581
 O         1.810754        -1.417333        -0.272571
 H        -0.679195        -0.598595        -0.599941
 H        -0.512293        -0.094044         1.140332
 H        -0.369483         1.024919        -0.215543
 H         2.374592         1.694381         0.733354
 H         2.867548         0.183909         1.597412
 H         1.776382         1.856134        -1.324755
 H         1.788945         0.505458        -2.355932
 H         5.510558        -1.589733        -0.823267
 H         4.800005        -0.935322         0.683182
 H         3.051529        -1.403188        -1.908180
