19
Iteration:  2218charge 0 multiplicity 1
 C        -0.144191        -0.003019         0.105812
 C         1.313457         0.019428        -0.045712
 C         2.565487         0.599725         0.703128
 C         3.203619         0.369015        -0.657624
 C         2.033606         0.964893        -1.405661
 O         4.645791         0.295126        -0.718311
 C         4.616978        -1.201533        -0.508259
 C         3.174429        -1.130468        -0.898632
 O         1.883290        -1.464280        -0.325430
 H        -0.544903        -0.964916         0.475656
 H        -0.268567         0.703310         0.842308
 H        -0.761003         0.521137        -0.627562
 H         2.251454         1.675953         0.911463
 H         2.806862        -0.002348         1.632170
 H         1.690447         1.938773        -1.185374
 H         1.778044         0.627678        -2.428745
 H         5.236946        -1.763185        -1.275128
 H         4.800213        -1.550036         0.514740
 H         2.958808        -1.474282        -1.928622
