19
Iteration:  3665
 C        -0.090354        -0.076938         0.050454
 C         1.363461         0.054700        -0.076147
 C         2.525344         0.646630         0.813007
 C         3.236848         0.338993        -0.669643
 C         2.034810         0.830317        -1.426866
 O         4.638559         0.400373        -0.883404
 C         4.560693        -1.129586        -0.462001
 C         3.086282        -1.191505        -0.922414
 O         1.850654        -1.431389        -0.180278
 H        -0.307494        -1.034817        -0.358897
 H        -0.324289        -0.123477         1.151179
 H        -0.594894         0.865182        -0.351036
 H         2.475772         1.737198         0.950380
 H         2.957653         0.134999         1.712197
 H         1.780464         1.942141        -1.198350
 H         1.987109         0.352683        -2.401011
 H         5.081787        -1.843565        -1.026196
 H         5.017848        -1.132399         0.595835
 H         3.058876        -1.645625        -1.985613
