19
Iteration:   355charge 0 multiplicity 1
 C        -0.138018         0.058890         0.306920
 C         1.281510        -0.010861        -0.174379
 C         2.571131         0.392731         0.651928
 C         3.290357         0.295090        -0.731971
 C         2.018074         0.913365        -1.227132
 O         4.738342         0.347635        -0.843517
 C         4.642520        -1.046977        -0.301840
 C         3.121218        -1.159730        -0.968290
 O         1.725208        -1.404969        -0.516464
 H        -0.264479        -0.732772         0.968092
 H        -0.286263         0.949147         0.982269
 H        -0.847317         0.095625        -0.559160
 H         2.417596         1.376434         1.189314
 H         2.700605        -0.341564         1.491080
 H         1.994538         1.998917        -1.116152
 H         1.767202         0.933818        -2.241622
 H         5.486407        -1.601847        -0.653117
 H         4.557918        -1.197784         0.796222
 H         3.183343        -1.451180        -2.030447
