19
Iteration:  1265
 C        -0.035173         0.063457         0.149040
 C         1.360356        -0.014894        -0.152454
 C         2.563773         0.458912         0.781013
 C         3.253295         0.394733        -0.586375
 C         1.939520         0.868191        -1.299835
 O         4.615584         0.287028        -0.737476
 C         4.661668        -1.142427        -0.535549
 C         3.113572        -1.074711        -0.915730
 O         1.769017        -1.430553        -0.420379
 H        -0.271103         0.057401         1.258073
 H        -0.318626         1.091551        -0.390543
 H        -0.726546        -0.544524        -0.344442
 H         2.490564         1.453893         1.193860
 H         3.099389        -0.212749         1.483953
 H         1.660927         1.907166        -1.176336
 H         1.758657         0.616906        -2.360854
 H         5.306527        -1.709189        -1.189635
 H         4.831414        -1.322712         0.540121
 H         3.294809        -1.260562        -2.024292
