19
Iteration:  2858charge 0 multiplicity 1
 C        -0.120629        -0.060255         0.066642
 C         1.368335        -0.021509        -0.114313
 C         2.533562         0.540988         0.745354
 C         3.242454         0.404510        -0.668748
 C         1.913235         0.943073        -1.379497
 O         4.744806         0.295865        -0.829254
 C         4.579629        -1.097036        -0.472691
 C         3.127091        -1.142346        -0.903727
 O         1.846831        -1.396987        -0.203767
 H        -0.280838        -0.880958         0.855298
 H        -0.577356         0.846652         0.442428
 H        -0.657216        -0.360357        -0.857626
 H         2.535914         1.611298         0.924045
 H         2.871678        -0.187413         1.552508
 H         1.581004         2.001033        -1.158965
 H         1.818909         0.817591        -2.447587
 H         5.363183        -1.699163        -1.017205
 H         4.645780        -1.295621         0.576039
 H         3.080704        -1.617730        -1.869477
