19
Iteration:  3896
 C        -0.078729        -0.079518         0.311116
 C         1.294398         0.105443        -0.286434
 C         2.521081         0.529818         0.606177
 C         3.240971         0.349136        -0.765958
 C         1.876120         0.840799        -1.466636
 O         4.747940         0.312094        -0.778440
 C         4.567981        -1.090141        -0.270068
 C         3.146338        -1.082442        -0.898618
 O         1.870639        -1.413043        -0.273344
 H        -0.566775        -1.001635        -0.086377
 H         0.102175        -0.163459         1.323508
 H        -0.672247         0.735720        -0.098424
 H         2.608519         1.564583         0.921566
 H         2.753828        -0.095018         1.405875
 H         1.741159         1.854989        -1.152811
 H         1.668516         0.580579        -2.568007
 H         5.398189        -1.650023        -0.840131
 H         4.748604        -1.143351         0.847789
 H         3.072004        -1.517369        -1.938089
