19
Iteration:  1956charge 0 multiplicity 1
 C        -0.066063         0.018245         0.276133
 C         1.368789        -0.057580        -0.153354
 C         2.573080         0.596657         0.670211
 C         3.207892         0.437300        -0.689385
 C         1.917512         0.938374        -1.331311
 O         4.704802         0.306674        -0.716062
 C         4.595775        -1.220364        -0.380034
 C         3.153995        -1.148985        -0.922148
 O         1.793559        -1.439524        -0.512537
 H        -0.118313        -0.739253         1.042698
 H        -0.201405         1.047541         0.712771
 H        -0.887625        -0.215179        -0.498534
 H         2.328810         1.606523         0.927603
 H         2.836691         0.024063         1.502582
 H         1.689761         2.007385        -1.338573
 H         1.634295         0.494293        -2.329597
 H         5.374405        -1.622332        -0.977766
 H         4.701038        -1.430432         0.703266
 H         3.226068        -1.388644        -1.989099
