19
Iteration:  3233charge 0 multiplicity 1
 C        -0.128214         0.023973         0.269483
 C         1.384617        -0.045135        -0.229548
 C         2.499588         0.650977         0.660699
 C         3.207603         0.383305        -0.717410
 C         1.904761         0.818845        -1.489529
 O         4.680334         0.333731        -0.857616
 C         4.596207        -1.111117        -0.294512
 C         3.190138        -1.128787        -0.815387
 O         1.906099        -1.491618        -0.306536
 H        -0.720896        -0.326478        -0.554971
 H        -0.123867        -0.709365         1.065092
 H        -0.598052         0.972450         0.649300
 H         2.366826         1.714471         0.833216
 H         2.791598         0.151088         1.612055
 H         1.590049         1.868459        -1.508725
 H         1.693180         0.437451        -2.472949
 H         5.350772        -1.700869        -0.778226
 H         4.679933        -1.123554         0.793987
 H         3.303498        -1.440851        -1.877851
