19
Iteration:   211
 C        -0.007442         0.045425         0.341137
 C         1.391795        -0.101955        -0.216905
 C         2.522031         0.487984         0.764585
 C         3.248640         0.349433        -0.687435
 C         1.959051         1.003028        -1.374684
 O         4.692638         0.258802        -0.786302
 C         4.539125        -1.043668        -0.373629
 C         3.102832        -1.169046        -0.983288
 O         1.801914        -1.418215        -0.506262
 H        -0.184681        -0.808805         1.002829
 H        -0.086023         0.894368         1.018394
 H        -0.750868         0.198155        -0.397475
 H         2.290216         1.435293         1.295300
 H         2.696286        -0.455225         1.330711
 H         1.741211         2.088217        -1.066852
 H         1.715541         0.920244        -2.429628
 H         5.451538        -1.562521        -0.684810
 H         4.523266        -1.072399         0.728388
 H         3.187502        -1.521714        -2.022226
