19
Iteration:  2550charge 0 multiplicity 1
 C        -0.166032         0.168310         0.158618
 C         1.355424         0.029378        -0.103418
 C         2.482509         0.546164         0.709222
 C         3.182208         0.214228        -0.727900
 C         1.939783         0.810815        -1.299666
 O         4.700268         0.368195        -0.764337
 C         4.692523        -1.024544        -0.470069
 C         3.171893        -1.246331        -0.930242
 O         1.845048        -1.477423        -0.319025
 H        -0.424646         0.165562         1.163997
 H        -0.617665         0.973759        -0.515828
 H        -0.463119        -0.781112        -0.282519
 H         2.571010         1.655246         0.944272
 H         2.679265        -0.091717         1.577770
 H         1.656081         1.804452        -1.015551
 H         1.911101         0.724426        -2.422811
 H         5.391287        -1.565691        -1.062185
 H         5.020017        -1.278744         0.626066
 H         3.219353        -1.415153        -1.971674
