19
Iteration:   511
 C        -0.062819         0.006143         0.344765
 C         1.347827        -0.075667        -0.132929
 C         2.573845         0.449256         0.717090
 C         3.246850         0.386872        -0.710354
 C         1.943309         1.011494        -1.389676
 O         4.687757         0.285524        -0.714419
 C         4.563679        -1.125225        -0.387626
 C         3.107798        -1.165099        -0.992111
 O         1.774558        -1.379220        -0.504098
 H        -0.166153        -0.173808         1.439865
 H        -0.423544         0.989890         0.172109
 H        -0.699988        -0.534919        -0.422947
 H         2.759230         1.434681         1.149552
 H         2.906990        -0.237403         1.491505
 H         1.803145         2.051777        -1.191057
 H         1.904472         0.820767        -2.485754
 H         5.509902        -1.527075        -0.890649
 H         4.782142        -1.317452         0.665922
 H         3.143047        -1.439866        -2.083532
