19
Iteration:  2762
 C        -0.034437        -0.064864         0.319581
 C         1.365813        -0.007372        -0.157436
 C         2.533029         0.626511         0.676072
 C         3.241810         0.413532        -0.659986
 C         1.923749         0.850929        -1.405282
 O         4.751245         0.290882        -0.718249
 C         4.547307        -1.174260        -0.377221
 C         3.092472        -1.059365        -0.953262
 O         1.852993        -1.400750        -0.480737
 H        -0.168957         0.013086         1.445743
 H        -0.645707         0.617763        -0.278020
 H        -0.450771        -1.010551        -0.016231
 H         2.319583         1.653942         0.864938
 H         2.527061        -0.064078         1.505670
 H         1.456601         1.901591        -1.498623
 H         1.737997         0.410389        -2.415274
 H         5.417340        -1.871206        -0.695690
 H         4.560455        -1.238964         0.729071
 H         3.117537        -1.248557        -2.026869
