19
Iteration:  3510
 C        -0.104613        -0.064284         0.108602
 C         1.355729         0.008363        -0.145960
 C         2.495490         0.655664         0.757909
 C         3.177332         0.398074        -0.712564
 C         1.885242         0.782366        -1.390697
 O         4.726884         0.307688        -0.816944
 C         4.681046        -1.113900        -0.499330
 C         3.138882        -1.154314        -0.956872
 O         1.907217        -1.362399        -0.104596
 H        -0.538293        -0.651759        -0.760207
 H        -0.649711        -0.430144         1.033600
 H        -0.455836         0.928423        -0.106450
 H         2.419133         1.697755         1.184203
 H         2.742485        -0.111036         1.491691
 H         1.502579         1.776914        -1.293998
 H         1.739920         0.345732        -2.439312
 H         5.344060        -1.762107        -1.094281
 H         4.716848        -1.292140         0.601597
 H         3.060132        -1.342187        -2.053213
