19
Iteration:   662
 C         0.017147        -0.026793         0.248898
 C         1.432863         0.036211        -0.195065
 C         2.602385         0.442946         0.723473
 C         3.236168         0.394934        -0.652679
 C         1.917904         0.937798        -1.361962
 O         4.627875         0.328030        -0.660943
 C         4.523280        -1.172691        -0.457883
 C         3.078560        -1.094638        -0.986232
 O         1.803075        -1.388552        -0.431628
 H        -0.021617        -0.193370         1.286280
 H        -0.463385         0.871604         0.067916
 H        -0.441807        -0.947327        -0.200097
 H         2.616358         1.548597         0.923762
 H         3.058982        -0.122661         1.572296
 H         1.622173         1.972625        -1.266656
 H         1.831379         0.598770        -2.380149
 H         5.207017        -1.748800        -1.122440
 H         4.526490        -1.430259         0.552144
 H         3.035072        -1.366582        -2.030880
