19
Iteration:  2276
 C        -0.109102         0.031098         0.252102
 C         1.356016         0.016402        -0.156642
 C         2.538087         0.443711         0.682080
 C         3.232407         0.383500        -0.669722
 C         1.986789         0.959350        -1.409306
 O         4.661667         0.241239        -0.793492
 C         4.621148        -1.110500        -0.325811
 C         3.119550        -1.060946        -0.925875
 O         1.849657        -1.434126        -0.453230
 H        -0.329680        -0.469444         1.267274
 H        -0.393698         1.083150         0.438388
 H        -0.614372        -0.508296        -0.504781
 H         2.419114         1.436075         1.089908
 H         2.696957        -0.206430         1.524828
 H         1.534747         1.928096        -1.003462
 H         1.818161         0.818337        -2.485604
 H         5.251424        -1.889956        -0.775373
 H         4.733151        -1.200589         0.773930
 H         3.334687        -1.433291        -2.004582
