19
Iteration:   521charge 0 multiplicity 1
 C        -0.101232        -0.026597         0.370131
 C         1.361637         0.018503        -0.192395
 C         2.610350         0.509115         0.738504
 C         3.202685         0.316413        -0.629616
 C         2.059693         0.969370        -1.397077
 O         4.645301         0.285081        -0.724827
 C         4.579530        -1.121634        -0.391379
 C         3.121177        -1.099302        -1.065944
 O         1.804718        -1.383158        -0.496205
 H        -0.225297        -0.448529         1.402682
 H        -0.315727         1.007173         0.447031
 H        -0.909729        -0.597036        -0.249122
 H         2.456172         1.556305         1.078752
 H         2.926507        -0.230207         1.474175
 H         1.608777         1.886552        -1.236504
 H         1.909953         0.610283        -2.431562
 H         5.239537        -1.869666        -0.949464
 H         4.458592        -1.291199         0.680982
 H         3.214943        -1.418134        -2.130256
