19
Iteration:  1795charge 0 multiplicity 1
 C        -0.046309         0.016284         0.310886
 C         1.338676         0.036778        -0.158872
 C         2.552561         0.400619         0.729584
 C         3.229339         0.401133        -0.709038
 C         1.890304         0.826917        -1.351948
 O         4.763730         0.288430        -0.807367
 C         4.562657        -1.100403        -0.327965
 C         3.168850        -1.076132        -0.961185
 O         1.753999        -1.341395        -0.493154
 H        -0.374123        -0.950318         0.734937
 H        -0.258307         0.804351         0.923988
 H        -0.607014         0.223770        -0.644379
 H         2.612928         1.392612         1.232339
 H         2.815101        -0.408728         1.417021
 H         1.504961         1.810493        -1.234497
 H         1.778847         0.407488        -2.341790
 H         5.413892        -1.654752        -0.708626
 H         4.519298        -1.007312         0.757578
 H         3.524912        -1.405182        -1.970635
