19
Iteration:  3536
 C        -0.081413        -0.034695         0.137115
 C         1.371657         0.012607        -0.172148
 C         2.569063         0.658048         0.691985
 C         3.177288         0.413746        -0.663258
 C         1.979823         0.774173        -1.370669
 O         4.651753         0.375248        -0.912248
 C         4.587083        -1.123699        -0.404054
 C         3.143854        -1.131230        -0.800476
 O         1.869000        -1.494537        -0.231714
 H        -0.559891        -0.216890        -0.823932
 H        -0.360836        -0.887675         0.781704
 H        -0.643864         0.894264         0.474746
 H         2.277532         1.668746         0.895901
 H         3.001882         0.189030         1.577773
 H         1.632888         1.860530        -1.390569
 H         1.864801         0.278012        -2.314567
 H         5.136074        -1.818149        -0.987517
 H         4.722869        -1.228980         0.661769
 H         3.200030        -1.233369        -1.848354
