19
Iteration:  3620
 C        -0.075743         0.004249         0.320425
 C         1.389130        -0.026512        -0.177985
 C         2.420653         0.688675         0.637579
 C         3.240973         0.351174        -0.803676
 C         1.862006         0.826415        -1.439612
 O         4.740807         0.333054        -0.764706
 C         4.604124        -1.175089        -0.325932
 C         3.162166        -1.109070        -0.872842
 O         1.914496        -1.478327        -0.393348
 H        -0.750604        -0.495687        -0.296772
 H        -0.140880        -0.450635         1.368402
 H        -0.277701         1.091373         0.403443
 H         2.320468         1.790729         0.582098
 H         2.615836         0.252388         1.628713
 H         1.564734         1.860166        -1.149299
 H         1.492947         0.496854        -2.416561
 H         5.423072        -1.693303        -0.770809
 H         4.555345        -1.402271         0.798611
 H         3.048992        -1.423119        -1.937500
