19
Iteration:   417charge 0 multiplicity 1
 C        -0.161219        -0.048385         0.240330
 C         1.369871         0.041549        -0.056804
 C         2.548102         0.571493         0.695991
 C         3.297197         0.337986        -0.651245
 C         1.885891         0.992507        -1.362726
 O         4.732559         0.292514        -0.653972
 C         4.597711        -1.220642        -0.512879
 C         3.086025        -1.135438        -1.029746
 O         1.879908        -1.369989        -0.415629
 H        -0.439765        -0.999062         0.859421
 H        -0.625890         0.918828         0.710464
 H        -0.690127         0.006207        -0.731056
 H         2.561942         1.687204         0.975523
 H         2.810382        -0.158389         1.528393
 H         1.895536         2.175853        -1.197576
 H         1.771124         0.514893        -2.359947
 H         5.255235        -1.621417        -1.292777
 H         4.720080        -1.712901         0.512934
 H         3.032086        -1.613370        -2.019921
