19
Iteration:  1766charge 0 multiplicity 1
 C        -0.084472         0.011672         0.220290
 C         1.321228         0.022760        -0.108136
 C         2.514830         0.567937         0.748816
 C         3.192630         0.307230        -0.678484
 C         2.024542         0.905648        -1.324050
 O         4.655397         0.318240        -0.778433
 C         4.605318        -1.185783        -0.476464
 C         3.163691        -1.080512        -0.945848
 O         1.819167        -1.475611        -0.409777
 H        -0.472730        -0.970888         0.779373
 H        -0.418261         1.051828         0.619657
 H        -0.695326         0.005952        -0.679776
 H         2.441827         1.668281         0.983409
 H         2.908751        -0.032875         1.602615
 H         1.786265         1.862849        -0.809367
 H         1.869059         0.976762        -2.428504
 H         5.523583        -1.530441        -1.045085
 H         4.838517        -1.296628         0.570058
 H         3.337238        -1.386521        -2.073138
