19
Iteration:  3280charge 0 multiplicity 1
 C        -0.071427        -0.090129         0.354019
 C         1.346609         0.038947        -0.098052
 C         2.518979         0.745493         0.494699
 C         3.225163         0.328856        -0.774827
 C         1.933685         0.787759        -1.487988
 O         4.653794         0.322976        -0.733383
 C         4.570675        -1.045489        -0.211818
 C         3.114980        -1.155510        -0.894526
 O         1.876178        -1.524893        -0.419771
 H        -0.815146         0.508905        -0.341675
 H        -0.185774        -1.097106         0.767760
 H         0.031629         0.650041         1.213862
 H         2.373620         1.863101         0.467621
 H         3.066204         0.380629         1.410750
 H         1.870831         1.909510        -1.665581
 H         1.638566         0.409026        -2.488796
 H         5.318186        -1.744939        -0.757831
 H         4.664379        -1.033417         0.851775
 H         3.457832        -1.516922        -1.844258
