19
Iteration:  2391charge 0 multiplicity 1
 C        -0.116366        -0.048466         0.102296
 C         1.389863         0.046307        -0.179971
 C         2.528927         0.512804         0.694297
 C         3.254869         0.387394        -0.649871
 C         1.934132         0.883039        -1.298939
 O         4.763442         0.281285        -0.819146
 C         4.643246        -1.104088        -0.450830
 C         3.121764        -1.118769        -0.913353
 O         1.763258        -1.356735        -0.254266
 H        -0.547017        -0.801244         0.819292
 H        -0.453490         0.922297         0.518134
 H        -0.710726        -0.243320        -0.860209
 H         2.496919         1.557756         1.108205
 H         2.798657        -0.242128         1.485397
 H         1.694980         1.928383        -1.194099
 H         1.750338         0.487489        -2.311591
 H         5.253427        -1.896095        -0.999954
 H         4.834620        -1.259219         0.601639
 H         2.951192        -1.516421        -1.890976
