19
Iteration:   509charge 0 multiplicity 1
 C        -0.051139         0.031337         0.332135
 C         1.353468        -0.076206        -0.115247
 C         2.562438         0.428273         0.700396
 C         3.250758         0.398182        -0.730370
 C         1.926036         1.012178        -1.375155
 O         4.699981         0.294881        -0.714740
 C         4.573513        -1.134406        -0.385599
 C         3.105875        -1.159031        -0.971245
 O         1.767491        -1.387855        -0.505024
 H        -0.164583        -0.210220         1.369880
 H        -0.412618         1.003797         0.140255
 H        -0.702237        -0.646184        -0.409202
 H         2.726829         1.453485         1.107874
 H         2.891018        -0.287947         1.482809
 H         1.870451         2.013152        -1.148792
 H         1.854325         0.841280        -2.458674
 H         5.486449        -1.522779        -0.922983
 H         4.773375        -1.307862         0.665179
 H         3.108886        -1.431203        -2.030151
