19
Iteration:   326
 C        -0.046692         0.008935         0.161326
 C         1.375180        -0.006751        -0.105436
 C         2.587516         0.484817         0.805342
 C         3.234049         0.367248        -0.701418
 C         1.934976         0.926580        -1.265628
 O         4.680405         0.321822        -0.751026
 C         4.539640        -1.179750        -0.420412
 C         3.113891        -1.099344        -0.958433
 O         1.814756        -1.371667        -0.478555
 H        -0.058756        -0.500905         1.183107
 H        -0.419363         0.989802         0.290621
 H        -0.656593        -0.434024        -0.641790
 H         2.468744         1.479399         1.114050
 H         2.837451        -0.213299         1.541850
 H         1.847250         1.992682        -1.175623
 H         1.627901         0.521500        -2.348445
 H         5.095947        -1.689010        -1.251940
 H         4.850614        -1.526283         0.548496
 H         3.189326        -1.415713        -2.028351
