19
Iteration:  4990
 C        -0.105679         0.035006         0.084928
 C         1.365839        -0.017545        -0.181678
 C         2.474182         0.642157         0.700457
 C         3.239232         0.407647        -0.612257
 C         1.975218         0.790875        -1.323274
 O         4.680262         0.289331        -0.794206
 C         4.718850        -1.137606        -0.450455
 C         3.159776        -1.155618        -0.892632
 O         1.786335        -1.457066        -0.268057
 H        -0.588516        -0.916172        -0.321674
 H        -0.424460         0.213721         1.165488
 H        -0.458330         0.797331        -0.559191
 H         2.195914         1.714758         0.847344
 H         2.719629         0.180589         1.711215
 H         1.719813         1.827410        -1.115551
 H         1.707976         0.643082        -2.393184
 H         5.341137        -1.604355        -1.164967
 H         4.862341        -1.148560         0.611664
 H         3.101588        -1.385193        -1.937994
