19
Iteration:  4042charge 0 multiplicity 1
 C        -0.169145        -0.058011         0.201355
 C         1.331235        -0.007015        -0.198625
 C         2.574123         0.555203         0.631924
 C         3.182265         0.432577        -0.718303
 C         1.914160         0.832431        -1.474998
 O         4.741381         0.337862        -0.816093
 C         4.563468        -1.076404        -0.391727
 C         3.152998        -1.130947        -0.845232
 O         1.901441        -1.420933        -0.190917
 H        -0.699623        -0.393671        -0.656971
 H        -0.230013        -0.732365         1.098604
 H        -0.390344         1.008604         0.342200
 H         2.492217         1.562786         1.000016
 H         2.943369        -0.081966         1.467030
 H         1.669234         1.897739        -1.184612
 H         1.871516         0.414318        -2.461350
 H         5.374587        -1.598974        -1.001538
 H         4.612341        -1.304332         0.749623
 H         3.052934        -1.589894        -1.948700
