19
Iteration:  4546
 C        -0.110524        -0.010567         0.302473
 C         1.361127         0.023244        -0.182648
 C         2.473975         0.596494         0.624855
 C         3.278609         0.304961        -0.666907
 C         1.928261         0.805238        -1.346646
 O         4.703381         0.313162        -0.747460
 C         4.688593        -1.082590        -0.354836
 C         3.108125        -1.193143        -0.960749
 O         1.819488        -1.361060        -0.409146
 H        -0.535625        -0.935163        -0.158408
 H        -0.149882        -0.000769         1.440482
 H        -0.639269         0.878110        -0.178170
 H         2.291059         1.680973         0.567383
 H         2.741208         0.270555         1.636068
 H         1.733213         1.934356        -1.402450
 H         1.733184         0.313188        -2.341874
 H         5.368325        -1.592594        -1.106898
 H         4.890593        -1.185214         0.793517
 H         3.033761        -1.497907        -1.986805
