19
Iteration:   276charge 0 multiplicity 1
 C        -0.055918        -0.032201         0.210821
 C         1.335757         0.031594        -0.147893
 C         2.454829         0.520943         0.696120
 C         3.316725         0.376760        -0.599543
 C         2.024104         0.981715        -1.323744
 O         4.685559         0.315354        -0.671924
 C         4.578125        -1.261947        -0.635856
 C         3.083749        -1.095536        -0.905955
 O         1.834717        -1.373873        -0.358700
 H        -0.247342        -0.259582         1.270275
 H        -0.598886         0.799547        -0.258893
 H        -0.411138        -0.839356        -0.420311
 H         2.327820         1.606237         0.934742
 H         2.804494        -0.266514         1.444379
 H         1.753710         1.936690        -0.818814
 H         1.761996         0.790380        -2.318401
 H         5.034884        -1.798883        -1.481127
 H         4.983786        -1.566453         0.341633
 H         2.988711        -1.293699        -1.981503
