19
Iteration:  2331
 C        -0.100578         0.030733         0.316804
 C         1.309343         0.027016        -0.261317
 C         2.505722         0.456056         0.675368
 C         3.237777         0.426162        -0.681238
 C         1.881235         0.906251        -1.412708
 O         4.749473         0.263693        -0.692783
 C         4.620836        -1.206445        -0.385426
 C         3.170183        -1.026172        -0.936050
 O         1.861954        -1.399359        -0.421543
 H        -0.056152         0.158296         1.421580
 H        -0.609133         0.923962        -0.154067
 H        -0.708395        -0.794300         0.015291
 H         2.328804         1.375176         1.193610
 H         2.859061        -0.338111         1.314138
 H         1.776145         2.047214        -1.356458
 H         1.505797         0.551791        -2.380951
 H         5.109956        -1.937802        -0.997590
 H         4.719285        -1.287816         0.706422
 H         3.370568        -1.464991        -1.977340
