19
Iteration:  4446
 C        -0.059746         0.025773         0.293044
 C         1.355479         0.044290        -0.250776
 C         2.514299         0.500186         0.680182
 C         3.257567         0.341539        -0.755455
 C         1.920925         0.775554        -1.483929
 O         4.686319         0.393246        -0.850084
 C         4.624944        -1.097708        -0.249990
 C         3.174015        -1.195626        -0.879141
 O         1.794035        -1.347390        -0.329268
 H        -0.822100        -0.037665        -0.498144
 H        -0.196697        -0.858625         0.928146
 H        -0.113847         0.852776         1.059213
 H         2.164262         1.497695         0.990039
 H         2.522738        -0.145779         1.512255
 H         1.442115         1.789688        -1.411769
 H         1.876209         0.390729        -2.530239
 H         5.389011        -1.684706        -0.719558
 H         4.989133        -1.074154         0.791538
 H         3.183781        -1.761233        -1.763459
