19
Iteration:    22charge 0 multiplicity 1
 C        -0.177271        -0.116421         0.347482
 C         1.320567         0.156827        -0.089664
 C         2.520040         0.610134         0.698213
 C         3.252265         0.320466        -0.719966
 C         1.850512         0.895018        -1.348504
 O         4.815925         0.278034        -0.664397
 C         4.641165        -1.218499        -0.455528
 C         3.169737        -1.163728        -1.010172
 O         1.812740        -1.310888        -0.527521
 H        -0.083622        -0.377819         1.402270
 H        -0.780912         0.834802         0.290157
 H        -0.649934        -1.003704        -0.131968
 H         2.592546         1.716104         0.795619
 H         2.693592         0.128421         1.676670
 H         1.792333         1.984452        -1.369492
 H         1.576873         0.517589        -2.302627
 H         5.338152        -1.701159        -1.132332
 H         4.898094        -1.487793         0.587360
 H         3.211242        -1.462695        -2.067603
