19
Iteration:  4652
 C        -0.107336         0.007407         0.043947
 C         1.344064         0.021233        -0.140082
 C         2.503961         0.595515         0.671429
 C         3.245911         0.388614        -0.646217
 C         1.950173         0.824897        -1.384194
 O         4.680994         0.328963        -0.818452
 C         4.616856        -1.107486        -0.492486
 C         3.051675        -1.133869        -0.893592
 O         1.955338        -1.484564        -0.123423
 H        -0.667429         0.233583        -0.834474
 H        -0.368513        -0.975741         0.366337
 H        -0.413516         0.733945         0.830359
 H         2.379076         1.744647         0.787056
 H         2.777704         0.141186         1.640568
 H         1.632371         1.862732        -1.325752
 H         1.751528         0.321504        -2.296169
 H         5.402499        -1.773415        -0.793514
 H         4.681074        -1.297694         0.565311
 H         2.954761        -1.234884        -2.026085
