19
Iteration:   975
 C        -0.096227        -0.032106         0.219513
 C         1.301642        -0.010497        -0.190174
 C         2.575422         0.511818         0.721306
 C         3.199104         0.380487        -0.635927
 C         1.985234         0.971195        -1.348363
 O         4.682715         0.268905        -0.745332
 C         4.572165        -1.201886        -0.470821
 C         3.169126        -1.107502        -0.953622
 O         1.823511        -1.353293        -0.395407
 H        -0.201413        -1.019620         0.658454
 H        -0.067983         0.556434         1.133900
 H        -0.847429         0.231451        -0.615906
 H         2.509880         1.536224         0.994261
 H         2.942170        -0.254495         1.433587
 H         1.568809         2.023667        -0.967491
 H         1.782885         1.095675        -2.445022
 H         5.358487        -1.831856        -0.887395
 H         4.782868        -1.342057         0.631921
 H         3.161049        -1.359415        -2.047949
