19
Iteration:  1390charge 0 multiplicity 1
 C        -0.080069         0.073832         0.201957
 C         1.352364        -0.067564        -0.125926
 C         2.594657         0.487563         0.741654
 C         3.210895         0.407460        -0.661413
 C         1.996740         0.849063        -1.354770
 O         4.703518         0.379149        -0.748321
 C         4.635908        -1.125513        -0.484670
 C         3.096468        -1.185096        -0.962517
 O         1.743992        -1.435856        -0.378350
 H        -0.434341        -0.946480         0.605209
 H        -0.222881         0.885045         0.958367
 H        -0.843046         0.289992        -0.714341
 H         2.475945         1.610749         1.067689
 H         2.823276        -0.052987         1.714651
 H         1.644286         1.883636        -1.126199
 H         1.966443         0.505076        -2.397580
 H         5.339141        -1.752231        -1.077865
 H         4.868752        -1.168736         0.574166
 H         3.106236        -1.202308        -2.086850
