19
Iteration:  3402
 C        -0.113443        -0.054111         0.286655
 C         1.373795         0.030321        -0.169249
 C         2.507035         0.626491         0.627400
 C         3.250649         0.386862        -0.716441
 C         1.921762         0.725101        -1.459405
 O         4.721988         0.346769        -0.782222
 C         4.592662        -1.069572        -0.332781
 C         3.116764        -1.185264        -0.868600
 O         1.830689        -1.376735        -0.354513
 H        -0.638349        -0.629534        -0.530256
 H         0.101607        -0.589978         1.301114
 H        -0.567567         0.929360         0.412793
 H         2.478434         1.731113         0.737879
 H         2.783182        -0.056825         1.417768
 H         1.654670         1.772978        -1.331391
 H         1.828380         0.395266        -2.570387
 H         5.430745        -1.596338        -0.804203
 H         4.725756        -1.017418         0.769128
 H         3.137216        -1.550659        -1.883480
