19
Iteration:  4646charge 0 multiplicity 1
 C        -0.160182        -0.039729         0.084840
 C         1.382088         0.001125        -0.140691
 C         2.489230         0.612766         0.687090
 C         3.236137         0.374567        -0.638034
 C         1.939085         0.820586        -1.443105
 O         4.745824         0.340005        -0.831148
 C         4.666197        -1.096383        -0.445052
 C         3.073133        -1.077840        -0.906425
 O         1.880141        -1.458722        -0.126029
 H        -0.715656         0.302378        -0.857820
 H        -0.491752        -1.070437         0.454108
 H        -0.390971         0.726506         0.819496
 H         2.533054         1.593411         1.059169
 H         2.915540        -0.023042         1.481844
 H         1.830780         1.941072        -1.523307
 H         1.703376         0.245493        -2.408216
 H         5.303430        -1.806942        -1.120610
 H         4.526920        -1.334128         0.681484
 H         2.836517        -1.389373        -1.904101
