19
Iteration:  2191
 C        -0.095404         0.047467         0.157704
 C         1.302025         0.018141        -0.215709
 C         2.495389         0.476039         0.706941
 C         3.233152         0.346707        -0.628304
 C         1.977156         0.811251        -1.329416
 O         4.760103         0.304028        -0.781863
 C         4.633900        -1.088142        -0.428284
 C         3.147964        -1.115053        -0.959051
 O         1.814368        -1.376766        -0.331765
 H        -0.317279        -0.894695         0.687647
 H        -0.108625         0.860437         1.011236
 H        -0.906182         0.397752        -0.470145
 H         2.230541         1.418440         1.134581
 H         2.659265        -0.270362         1.455532
 H         1.854399         1.956333        -1.211305
 H         1.751309         0.494822        -2.343368
 H         5.343449        -1.626363        -1.019393
 H         4.536017        -1.357573         0.672122
 H         3.009535        -1.347799        -2.005721
