19
Iteration:  4776
 C        -0.049232        -0.060700         0.272061
 C         1.369880         0.140864        -0.162290
 C         2.470324         0.648779         0.718526
 C         3.211018         0.348813        -0.737229
 C         1.956374         0.762756        -1.442244
 O         4.672133         0.263054        -0.713814
 C         4.644711        -1.105845        -0.343108
 C         3.095445        -1.134513        -0.951684
 O         1.861030        -1.355347        -0.398405
 H        -0.274824        -1.114091        -0.108788
 H        -0.258061        -0.017196         1.344978
 H        -0.755602         0.617886        -0.070546
 H         2.449434         1.660673         0.869246
 H         2.839980        -0.116877         1.363915
 H         1.621735         1.778763        -1.546228
 H         1.706412         0.340425        -2.420159
 H         5.367342        -1.679384        -0.894500
 H         4.707932        -1.332919         0.755250
 H         3.252088        -1.432118        -2.001940
