19
Iteration:  3048charge 0 multiplicity 1
 C        -0.156698        -0.023704         0.106852
 C         1.313177        -0.017016        -0.184364
 C         2.519119         0.475409         0.719043
 C         3.246397         0.400577        -0.679324
 C         1.923913         0.809104        -1.291177
 O         4.856786         0.368091        -0.806959
 C         4.632819        -1.126918        -0.485842
 C         3.126361        -1.088454        -0.873721
 O         1.800538        -1.375521        -0.247717
 H        -0.393740         0.051064         1.145894
 H        -0.681892         0.922248        -0.356344
 H        -0.750710        -0.912564        -0.149464
 H         2.493660         1.556229         1.098865
 H         2.688269        -0.340321         1.399274
 H         1.460791         1.812924        -1.363070
 H         1.650660         0.638480        -2.424768
 H         5.315343        -1.599909        -1.177971
 H         5.008753        -1.296709         0.575484
 H         3.007780        -1.433832        -1.862874
