19
Iteration:  2745
 C        -0.078052        -0.117737         0.173728
 C         1.377109        -0.060570        -0.131552
 C         2.481921         0.660156         0.719402
 C         3.261911         0.417528        -0.667048
 C         1.950162         0.918476        -1.325368
 O         4.729707         0.271706        -0.800204
 C         4.569813        -1.147149        -0.351317
 C         3.164992        -1.116902        -0.935034
 O         1.776897        -1.420511        -0.419557
 H        -0.147984        -0.071678         1.221647
 H        -0.556463         0.857330        -0.119073
 H        -0.469038        -1.097880        -0.153286
 H         2.194646         1.751637         0.612033
 H         3.127206         0.525930         1.638240
 H         1.765643         1.905920        -1.056513
 H         1.720193         0.735422        -2.390864
 H         5.187456        -1.690172        -0.979100
 H         4.782724        -1.344036         0.714898
 H         3.124047        -1.417923        -2.024230
