19
Iteration:  1367
 C        -0.085701         0.006451         0.273009
 C         1.341820        -0.000607        -0.174640
 C         2.492769         0.540038         0.612276
 C         3.241123         0.396471        -0.761042
 C         1.896544         0.976838        -1.349298
 O         4.704526         0.260684        -0.679034
 C         4.596913        -1.211086        -0.433093
 C         3.135112        -1.096240        -0.948239
 O         1.929878        -1.414219        -0.375958
 H        -0.290580        -0.957663         0.785150
 H        -0.186671         0.894631         1.033549
 H        -0.913403         0.094519        -0.593919
 H         2.294828         1.589042         1.077380
 H         2.606671        -0.094803         1.568381
 H         1.743508         2.013815        -1.024890
 H         1.549099         0.640117        -2.305949
 H         5.215203        -1.859150        -1.089480
 H         4.697328        -1.458353         0.627398
 H         3.285977        -1.324415        -2.085427
