19
Iteration:  4445charge 0 multiplicity 1
 C        -0.057614         0.025412         0.299078
 C         1.354505         0.044163        -0.251612
 C         2.505426         0.492822         0.671344
 C         3.256875         0.348946        -0.758919
 C         1.918761         0.784251        -1.482733
 O         4.687661         0.386936        -0.848483
 C         4.621628        -1.094199        -0.249019
 C         3.176469        -1.192580        -0.882707
 O         1.800206        -1.348869        -0.324984
 H        -0.847329        -0.012169        -0.465549
 H        -0.180239        -0.858580         0.917369
 H        -0.107769         0.837636         1.047400
 H         2.188001         1.492153         0.989268
 H         2.499287        -0.165708         1.502152
 H         1.475115         1.778269        -1.468402
 H         1.875548         0.366690        -2.498343
 H         5.391030        -1.675020        -0.700595
 H         4.977957        -1.084076         0.816101
 H         3.179952        -1.763257        -1.773489
