19
Iteration:  1677charge 0 multiplicity 1
 C        -0.070638        -0.010189         0.314294
 C         1.368784         0.024351        -0.233352
 C         2.554600         0.332656         0.697361
 C         3.241366         0.420692        -0.669665
 C         1.981817         1.035517        -1.352707
 O         4.674591         0.302451        -0.805035
 C         4.591087        -1.114377        -0.323563
 C         3.096515        -1.085711        -0.967714
 O         1.805252        -1.431444        -0.464941
 H        -0.068884        -0.126827         1.505485
 H        -0.414342         0.952402         0.079007
 H        -0.649224        -0.808208        -0.277145
 H         2.337993         1.274874         1.284336
 H         2.965080        -0.404330         1.412425
 H         1.795677         2.040350        -1.059062
 H         1.806666         0.663821        -2.348572
 H         5.386274        -1.724876        -0.818925
 H         4.535892        -1.177073         0.750080
 H         3.032974        -1.435607        -2.050447
