19
Iteration:  2432charge 0 multiplicity 1
 C        -0.066383         0.114252         0.228924
 C         1.352437        -0.064699        -0.160801
 C         2.591353         0.552737         0.675250
 C         3.223897         0.289355        -0.652535
 C         2.010514         0.823618        -1.375756
 O         4.566553         0.333552        -0.778156
 C         4.564695        -1.067623        -0.336696
 C         3.141213        -1.164487        -0.897367
 O         1.858824        -1.459638        -0.463293
 H        -0.410199        -0.779134         0.628235
 H        -0.000043         0.932962         1.046612
 H        -0.862245         0.559348        -0.459035
 H         2.260930         1.530046         0.824751
 H         2.861642         0.113497         1.585440
 H         1.766403         1.878135        -1.394218
 H         1.806315         0.261247        -2.336337
 H         5.369216        -1.604526        -0.775038
 H         4.800330        -1.070659         0.752483
 H         3.354520        -1.185141        -2.043535
