19
Iteration:   921
 C        -0.078820         0.022116         0.156224
 C         1.325462        -0.026099        -0.109192
 C         2.590370         0.455217         0.744059
 C         3.289573         0.424185        -0.615235
 C         1.983581         0.956037        -1.320905
 O         4.660898         0.237378        -0.764070
 C         4.560443        -1.141872        -0.489387
 C         3.079168        -1.055502        -0.970370
 O         1.863854        -1.419631        -0.388193
 H        -0.407572        -0.458586         1.066951
 H        -0.370892         1.063672         0.273965
 H        -0.750983        -0.566159        -0.616651
 H         2.421888         1.428711         1.124015
 H         2.767277        -0.279130         1.560995
 H         1.682270         1.971797        -0.931296
 H         1.768144         0.567597        -2.315912
 H         5.273271        -1.479918        -1.239994
 H         4.738980        -1.334440         0.616501
 H         3.056779        -1.184703        -2.102224
