19
Iteration:  4755charge 0 multiplicity 1
 C        -0.085726        -0.069613         0.346013
 C         1.337552        -0.048955        -0.218757
 C         2.569804         0.614878         0.590726
 C         3.278482         0.442151        -0.744538
 C         1.840912         0.827635        -1.477686
 O         4.776451         0.318529        -0.682179
 C         4.549761        -1.176884        -0.286187
 C         3.154132        -1.070652        -0.923625
 O         1.847077        -1.402919        -0.422567
 H        -0.716021        -0.999656         0.249898
 H        -0.098813         0.250554         1.399327
 H        -0.588715         0.792227         0.000635
 H         2.444423         1.618011         0.760741
 H         2.844068         0.030734         1.462190
 H         1.620403         1.885007        -1.504440
 H         1.617895         0.486411        -2.503990
 H         5.159811        -1.936308        -0.704815
 H         4.397676        -1.188716         0.767069
 H         3.180040        -1.386250        -1.942686
