19
Iteration:  3526
 C        -0.062440        -0.031537         0.040842
 C         1.406487        -0.026284        -0.080905
 C         2.512652         0.557441         0.735178
 C         3.271413         0.406031        -0.654426
 C         1.924498         0.742084        -1.428522
 O         4.627464         0.331227        -0.886721
 C         4.536186        -1.104006        -0.442911
 C         3.083933        -1.031335        -0.810974
 O         1.938666        -1.377935        -0.198006
 H        -0.526097        -0.516728        -0.806484
 H        -0.157333        -0.727276         0.869064
 H        -0.427044         0.965151         0.424274
 H         2.398476         1.618439         0.833375
 H         2.875091         0.062093         1.647462
 H         1.582586         1.820196        -1.529717
 H         1.753981         0.211143        -2.332218
 H         5.178479        -1.706220        -1.096921
 H         4.776810        -1.273782         0.614933
 H         2.985513        -1.425693        -1.819582
