19
Iteration:  2178charge 0 multiplicity 1
 C        -0.064098         0.073056         0.239719
 C         1.415677         0.002980        -0.179366
 C         2.479713         0.495477         0.766885
 C         3.250658         0.350384        -0.660171
 C         1.947622         0.900774        -1.386913
 O         4.647026         0.315345        -0.784418
 C         4.617691        -1.154793        -0.377662
 C         3.144116        -1.125418        -0.896337
 O         1.801016        -1.426946        -0.476670
 H        -0.394013        -0.946976         0.764923
 H        -0.254133         0.951245         0.957431
 H        -0.631725         0.136467        -0.681322
 H         2.552384         1.540046         0.965030
 H         2.757663        -0.108565         1.613710
 H         1.484071         1.971805        -1.218557
 H         1.781326         0.503048        -2.419737
 H         5.380721        -1.832888        -0.829352
 H         4.902931        -1.113255         0.692762
 H         3.321840        -1.401780        -2.003316
