19
Iteration:   306
 C        -0.158654        -0.004146         0.209809
 C         1.309855        -0.037144        -0.120983
 C         2.494989         0.535171         0.733609
 C         3.321078         0.387283        -0.514784
 C         2.010541         0.933242        -1.317235
 O         4.758825         0.263419        -0.726078
 C         4.593158        -1.206944        -0.607677
 C         3.089178        -1.022884        -1.063285
 O         1.847061        -1.411747        -0.342469
 H        -0.395128        -0.324758         1.310855
 H        -0.632653         0.926731         0.031891
 H        -0.516437        -0.691061        -0.551782
 H         2.476261         1.591693         0.925809
 H         2.827566         0.001810         1.610678
 H         1.533275         1.870037        -1.152104
 H         1.837922         0.789339        -2.432524
 H         5.375660        -1.905915        -1.036415
 H         4.534706        -1.409214         0.444052
 H         2.918189        -1.068397        -2.140441
