19
Iteration:  2916charge 0 multiplicity 1
 C        -0.138894         0.073797         0.285623
 C         1.313616        -0.056655        -0.249729
 C         2.465815         0.491265         0.620111
 C         3.264138         0.428703        -0.682526
 C         1.873680         0.789690        -1.449206
 O         4.742614         0.301182        -0.786381
 C         4.614084        -1.137784        -0.342382
 C         3.235071        -1.015956        -0.891835
 O         1.853094        -1.402619        -0.341842
 H        -0.319867        -0.938006         0.644713
 H        -0.064116         0.641424         1.300398
 H        -0.906989         0.320304        -0.422945
 H         2.336590         1.460809         1.141253
 H         2.787752        -0.148386         1.402958
 H         1.737319         1.864262        -1.209696
 H         1.742645         0.366123        -2.532236
 H         5.286010        -1.782483        -0.916223
 H         4.746410        -1.275408         0.790803
 H         3.164034        -1.335447        -1.891412
