19
Iteration:  3507
 C        -0.147304        -0.041738         0.115607
 C         1.339075         0.019542        -0.151993
 C         2.500001         0.666674         0.736904
 C         3.177153         0.386432        -0.713135
 C         1.877930         0.801524        -1.378171
 O         4.739807         0.325866        -0.814809
 C         4.696995        -1.115952        -0.505367
 C         3.153226        -1.168712        -0.923729
 O         1.911347        -1.399595        -0.120339
 H        -0.514099        -0.791179        -0.699245
 H        -0.573104        -0.393275         1.013258
 H        -0.538423         0.934104        -0.106127
 H         2.383174         1.720108         1.102071
 H         2.855233        -0.072978         1.504168
 H         1.552197         1.829164        -1.265250
 H         1.730746         0.428317        -2.382795
 H         5.403632        -1.827685        -1.134147
 H         4.633637        -1.415272         0.580192
 H         3.059338        -1.376600        -2.059200
