19
Iteration:  3512
 C        -0.084554        -0.080627         0.099170
 C         1.367842        -0.001516        -0.134754
 C         2.492456         0.647031         0.764843
 C         3.185701         0.400659        -0.707103
 C         1.889784         0.767532        -1.403865
 O         4.716682         0.297877        -0.819670
 C         4.663083        -1.114044        -0.494592
 C         3.130499        -1.136643        -0.970162
 O         1.906395        -1.343266        -0.101449
 H        -0.539902        -0.550837        -0.759258
 H        -0.639398        -0.446630         1.033707
 H        -0.434845         0.968289        -0.100746
 H         2.445477         1.649540         1.196799
 H         2.684070        -0.115849         1.499439
 H         1.469469         1.792530        -1.315775
 H         1.741183         0.319641        -2.427555
 H         5.308083        -1.698746        -1.057551
 H         4.790691        -1.214169         0.593604
 H         3.044373        -1.339844        -2.015719
