19
Iteration:   941
 C        -0.090175        -0.067643         0.119230
 C         1.378447         0.104720        -0.027517
 C         2.498591         0.503623         0.813179
 C         3.240926         0.366112        -0.574157
 C         1.967781         0.903319        -1.325986
 O         4.759063         0.344562        -0.791660
 C         4.562282        -1.272600        -0.552725
 C         3.148510        -1.099785        -1.017417
 O         1.800367        -1.336587        -0.390656
 H        -0.282966        -0.911204         0.799295
 H        -0.580965         0.810720         0.622289
 H        -0.788416        -0.300442        -0.676483
 H         2.591579         1.563525         1.032296
 H         2.887363         0.030635         1.743259
 H         1.769018         2.005039        -1.114481
 H         1.803640         0.355800        -2.306665
 H         5.186543        -1.942832        -1.109051
 H         4.506645        -1.239115         0.551148
 H         3.053592        -1.323269        -2.097864
