19
Iteration:  2650charge 0 multiplicity 1
 C        -0.090310        -0.009430         0.300918
 C         1.334804         0.013522        -0.228015
 C         2.515082         0.537840         0.638894
 C         3.211524         0.362719        -0.668571
 C         1.922767         0.796588        -1.484130
 O         4.745183         0.303953        -0.801626
 C         4.560611        -1.104721        -0.307075
 C         3.171579        -1.062315        -0.925825
 O         1.849998        -1.366502        -0.328415
 H        -0.323050        -1.038771         0.638432
 H        -0.243619         0.648650         1.138257
 H        -0.816701         0.143117        -0.569279
 H         2.588446         1.582168         0.915272
 H         2.662538        -0.113872         1.524652
 H         1.530988         1.871076        -1.406944
 H         1.877071         0.361570        -2.515007
 H         5.445833        -1.653951        -0.743955
 H         4.562986        -1.270090         0.813541
 H         3.250987        -1.510970        -1.889148
