19
Iteration:  3481charge 0 multiplicity 1
 C        -0.133174        -0.048946         0.259181
 C         1.350273        -0.012862        -0.168738
 C         2.516634         0.658836         0.635249
 C         3.234635         0.329429        -0.710814
 C         1.984394         0.818504        -1.379820
 O         4.613634         0.341328        -0.780452
 C         4.707153        -1.080531        -0.394470
 C         3.102829        -1.159234        -0.855588
 O         1.863067        -1.454376        -0.339327
 H        -0.611389        -0.921969        -0.097159
 H        -0.512628         0.134168         1.304595
 H        -0.400133         0.885558        -0.344540
 H         2.446972         1.725860         0.727671
 H         2.727031         0.208065         1.610614
 H         1.677634         1.899985        -1.231809
 H         1.792919         0.518491        -2.417272
 H         5.111950        -1.695241        -1.150220
 H         5.318812        -1.206140         0.534694
 H         3.236194        -1.382615        -1.894379
