19
Iteration:  3477charge 0 multiplicity 1
 C        -0.101276        -0.023934         0.272538
 C         1.365075        -0.030851        -0.170368
 C         2.494794         0.659379         0.664870
 C         3.188804         0.318330        -0.700481
 C         1.983577         0.807462        -1.404427
 O         4.616504         0.348453        -0.788205
 C         4.724105        -1.061328        -0.391047
 C         3.121299        -1.161402        -0.855092
 O         1.836632        -1.423437        -0.362976
 H        -0.522910        -1.000816        -0.090004
 H        -0.384332         0.165631         1.362548
 H        -0.423832         0.808527        -0.322711
 H         2.374131         1.756218         0.869111
 H         2.823198         0.093059         1.548589
 H         1.687489         1.830332        -1.301589
 H         1.878475         0.463659        -2.491638
 H         5.278481        -1.735866        -1.082454
 H         5.139153        -1.344606         0.594115
 H         3.149122        -1.503477        -1.914635
