19
Iteration:   564
 C        -0.151606        -0.005149         0.241455
 C         1.343930        -0.011806        -0.154846
 C         2.603457         0.558535         0.665683
 C         3.197354         0.429616        -0.723733
 C         1.874454         0.950063        -1.319629
 O         4.743594         0.186773        -0.699174
 C         4.644848        -1.218094        -0.441000
 C         3.145983        -1.052418        -0.945769
 O         1.827248        -1.362360        -0.409448
 H        -0.143947        -1.029765         0.706587
 H        -0.425709         0.581994         1.061448
 H        -0.959601        -0.100922        -0.618854
 H         2.379251         1.625908         0.932108
 H         3.078122         0.013912         1.521783
 H         1.704927         1.956503        -1.092110
 H         1.548513         0.743311        -2.348665
 H         5.409379        -1.758141        -1.129738
 H         4.781406        -1.385880         0.626591
 H         3.163837        -1.222481        -2.045234
