19
Iteration:  2569charge 0 multiplicity 1
 C        -0.060788         0.073851         0.145579
 C         1.383549        -0.058234        -0.168526
 C         2.569175         0.475276         0.734418
 C         3.206863         0.343758        -0.618391
 C         1.989386         0.809124        -1.408630
 O         4.619916         0.402759        -0.769028
 C         4.629511        -1.112540        -0.434428
 C         3.114856        -1.112951        -0.906117
 O         1.783491        -1.446208        -0.315310
 H        -0.085008         0.189790         1.264159
 H        -0.309913         1.057012        -0.316791
 H        -0.749101        -0.615244        -0.260470
 H         2.248277         1.557306         0.831131
 H         3.063694        -0.127669         1.517085
 H         1.734989         1.851859        -1.378640
 H         1.824731         0.349930        -2.364163
 H         5.368046        -1.611721        -1.036845
 H         4.928781        -1.025683         0.608338
 H         3.094448        -1.528539        -1.894458
