19
Iteration:  4815charge 0 multiplicity 1
 C        -0.155461         0.025542         0.085662
 C         1.331856        -0.070705        -0.091792
 C         2.452538         0.584835         0.714987
 C         3.242173         0.388314        -0.716853
 C         1.976768         0.873069        -1.430070
 O         4.679259         0.260376        -0.848284
 C         4.671774        -1.063998        -0.425248
 C         3.119026        -1.090985        -0.849582
 O         1.895937        -1.458552        -0.225369
 H        -0.731106        -0.429286        -0.703404
 H        -0.363755        -0.354780         1.112637
 H        -0.349641         1.160210        -0.014448
 H         2.255082         1.647625         1.253730
 H         2.756940        -0.213961         1.505476
 H         1.678581         1.877454        -1.042442
 H         1.799423         0.606418        -2.495976
 H         5.461755        -1.752837        -0.885959
 H         5.058603        -1.158039         0.634389
 H         3.136480        -1.544066        -1.887431
