19
Iteration:  1296
 C        -0.137932         0.051908         0.256715
 C         1.340509         0.057660        -0.184772
 C         2.460288         0.401316         0.698877
 C         3.298063         0.306514        -0.707098
 C         1.959287         0.934670        -1.245221
 O         4.727163         0.279397        -0.786717
 C         4.595522        -1.078717        -0.413850
 C         3.134126        -1.085072        -1.037605
 O         1.822581        -1.435962        -0.413880
 H        -0.189452        -0.048424         1.369823
 H        -0.505214         1.006199        -0.055017
 H        -0.707005        -0.696443        -0.139576
 H         2.466378         1.379858         1.036921
 H         2.887054        -0.156241         1.493661
 H         1.919426         1.915230        -0.771685
 H         1.808189         0.652681        -2.295924
 H         5.455345        -1.664916        -0.744783
 H         4.564621        -1.076201         0.703290
 H         3.273680        -1.444857        -2.057692
