19
Iteration:   916
 C        -0.105180         0.018649         0.152442
 C         1.389260        -0.043301        -0.097353
 C         2.560477         0.405589         0.694781
 C         3.235030         0.434657        -0.617029
 C         1.981568         1.013413        -1.313246
 O         4.682380         0.262938        -0.757407
 C         4.578763        -1.141555        -0.483243
 C         3.089934        -1.058937        -0.944172
 O         1.840788        -1.468314        -0.395893
 H        -0.365706        -0.315314         1.206744
 H        -0.345867         1.114419         0.147986
 H        -0.788689        -0.419522        -0.475968
 H         2.435295         1.475271         1.082902
 H         2.936000        -0.142921         1.572620
 H         1.662474         1.990900        -1.016557
 H         1.753533         0.769254        -2.383445
 H         5.236793        -1.692776        -1.193623
 H         4.818700        -1.335274         0.537659
 H         3.099174        -1.281790        -1.989571
