19
Iteration:   713charge 0 multiplicity 1
 C        -0.058291        -0.046713         0.291195
 C         1.361139         0.049213        -0.132430
 C         2.498501         0.619328         0.755830
 C         3.291950         0.341840        -0.650483
 C         1.935912         0.876190        -1.304167
 O         4.700511         0.289756        -0.747122
 C         4.600528        -1.177439        -0.429887
 C         3.116407        -1.105962        -0.971011
 O         1.796932        -1.379852        -0.558295
 H        -0.010255        -0.594992         1.282587
 H        -0.488943         0.993791         0.469335
 H        -0.566485        -0.774030        -0.387911
 H         2.460112         1.668987         1.024813
 H         2.739374        -0.149789         1.458377
 H         1.866114         1.933074        -1.152097
 H         1.661129         0.598855        -2.391270
 H         5.205201        -1.800486        -1.051444
 H         4.675807        -1.305085         0.709019
 H         3.113838        -1.379328        -2.046444
