19
Iteration:  4453
 C        -0.066989         0.031428         0.269454
 C         1.363919        -0.000339        -0.215533
 C         2.526316         0.571700         0.690886
 C         3.249787         0.302631        -0.727018
 C         1.934192         0.759207        -1.479346
 O         4.675030         0.402552        -0.849774
 C         4.662683        -1.095457        -0.288966
 C         3.138958        -1.188309        -0.818466
 O         1.772643        -1.373921        -0.365282
 H        -0.723436        -0.048166        -0.602428
 H        -0.215444        -0.846193         0.888534
 H        -0.312962         0.901337         0.831120
 H         2.330835         1.615528         0.966492
 H         2.816544        -0.079867         1.585995
 H         1.597200         1.718917        -1.209447
 H         1.770696         0.523695        -2.508991
 H         5.325346        -1.718764        -0.913321
 H         4.860699        -0.992146         0.820327
 H         3.249055        -1.675546        -1.851962
