19
Iteration:  2050
 C        -0.128095         0.095812         0.102535
 C         1.378857        -0.101834        -0.127377
 C         2.573783         0.437727         0.742751
 C         3.229720         0.374058        -0.675579
 C         2.016785         0.931124        -1.322373
 O         4.699262         0.336555        -0.831948
 C         4.551445        -1.113310        -0.464781
 C         3.082116        -1.065632        -0.916230
 O         1.848876        -1.473613        -0.277823
 H        -0.436143        -0.446939         0.979043
 H        -0.403765         1.189695         0.151455
 H        -0.661365        -0.357662        -0.683189
 H         2.480921         1.433450         1.247142
 H         2.826508        -0.408614         1.494739
 H         1.830317         2.004049        -1.177949
 H         1.777589         0.675466        -2.310711
 H         5.414808        -1.622144        -0.945710
 H         4.508479        -1.188374         0.638357
 H         3.008793        -1.360223        -1.961056
