19
Iteration:  3534
 C        -0.070124        -0.021841         0.114894
 C         1.376244         0.007637        -0.159455
 C         2.563260         0.627384         0.705516
 C         3.188661         0.421974        -0.664820
 C         1.973730         0.769627        -1.375113
 O         4.644442         0.372504        -0.911313
 C         4.577191        -1.122996        -0.414636
 C         3.128362        -1.114805        -0.785062
 O         1.888117        -1.474776        -0.227442
 H        -0.544755        -0.307899        -0.812577
 H        -0.327051        -0.921111         0.798608
 H        -0.624738         0.897318         0.467277
 H         2.276831         1.673301         0.843507
 H         3.002290         0.177836         1.587706
 H         1.634774         1.839728        -1.429802
 H         1.847831         0.220170        -2.336061
 H         5.079103        -1.791974        -1.013747
 H         4.671537        -1.274800         0.656853
 H         3.187805        -1.253673        -1.851186
