19
Iteration:  3586charge 0 multiplicity 1
 C        -0.039906         0.034470         0.331410
 C         1.368483        -0.016129        -0.212643
 C         2.593033         0.553430         0.629834
 C         3.265905         0.402744        -0.741982
 C         1.891094         0.732985        -1.552394
 O         4.643225         0.383981        -0.820554
 C         4.579546        -1.018249        -0.213099
 C         3.120511        -1.143051        -0.827632
 O         1.800607        -1.473915        -0.422344
 H        -0.937502         0.025828        -0.251060
 H        -0.020803        -0.857723         1.040918
 H        -0.153879         0.859481         1.007286
 H         2.854222         1.539278         1.110886
 H         2.832343        -0.168264         1.430291
 H         1.664371         1.789581        -1.511041
 H         1.660695         0.326833        -2.574440
 H         5.409843        -1.657237        -0.615088
 H         4.448825        -1.083925         0.915241
 H         3.361285        -1.463204        -1.896023
