19
Iteration:  2573charge 0 multiplicity 1
 C        -0.062181         0.086096         0.172809
 C         1.387258        -0.042835        -0.180169
 C         2.554770         0.459043         0.732646
 C         3.168548         0.343867        -0.632372
 C         1.969856         0.810305        -1.415241
 O         4.657877         0.388257        -0.777631
 C         4.597042        -1.120414        -0.417292
 C         3.122628        -1.083803        -0.895906
 O         1.797407        -1.447566        -0.313898
 H        -0.050844         0.039732         1.221549
 H        -0.358248         1.078641        -0.257148
 H        -0.695159        -0.710989        -0.301030
 H         2.213978         1.492932         0.912906
 H         3.112746        -0.061799         1.517250
 H         1.622669         1.852492        -1.473361
 H         1.994350         0.369598        -2.470629
 H         5.286073        -1.783259        -0.962139
 H         5.078839        -0.988653         0.607037
 H         3.218705        -1.344750        -1.956056
