19
Iteration:  4267charge 0 multiplicity 1
 C        -0.012552        -0.068749         0.338778
 C         1.336554        -0.024010        -0.157058
 C         2.502800         0.775135         0.577620
 C         3.288946         0.337544        -0.737425
 C         2.000024         0.806021        -1.417732
 O         4.675795         0.324140        -0.824851
 C         4.583883        -1.060680        -0.219829
 C         3.085487        -1.190291        -0.932710
 O         1.811753        -1.439615        -0.426475
 H        -0.766039        -0.718533        -0.214831
 H         0.048791        -0.617740         1.327692
 H        -0.348291         0.951342         0.646314
 H         2.075366         1.823240         0.579476
 H         2.679855         0.199422         1.522233
 H         1.612987         1.858607        -1.396807
 H         1.743660         0.410573        -2.379016
 H         5.271704        -1.837358        -0.744030
 H         4.764079        -0.990382         0.859141
 H         3.266183        -1.705914        -1.863994
