19
Iteration:  4864charge 0 multiplicity 1
 C        -0.122504        -0.013100         0.213145
 C         1.322795        -0.026072        -0.192032
 C         2.571555         0.629671         0.663089
 C         3.175331         0.327480        -0.714211
 C         1.930495         0.894580        -1.488304
 O         4.701241         0.303845        -0.778758
 C         4.673593        -1.059649        -0.313934
 C         3.183121        -1.170710        -0.833765
 O         1.791661        -1.449056        -0.314888
 H        -0.607718         0.291983        -0.751045
 H        -0.484850        -0.935874         0.626353
 H        -0.235263         0.788632         0.939334
 H         2.383862         1.643383         0.681079
 H         3.042780         0.178057         1.508239
 H         1.653575         1.959629        -1.402798
 H         1.716233         0.512443        -2.476553
 H         5.350885        -1.751011        -0.771683
 H         4.819292        -1.284973         0.762577
 H         3.229328        -1.643174        -1.880246
