19
Iteration:  4167
 C        -0.126612         0.005022         0.075329
 C         1.294822        -0.011117        -0.162963
 C         2.440871         0.589105         0.680218
 C         3.272715         0.381362        -0.668224
 C         1.872570         0.719446        -1.368915
 O         4.755857         0.300882        -0.899516
 C         4.730419        -1.096111        -0.454120
 C         3.159944        -1.049422        -0.813333
 O         1.821080        -1.359972        -0.142221
 H        -0.574029        -0.396055        -0.940001
 H        -0.333062        -0.771591         0.903099
 H        -0.514884         0.937564         0.577404
 H         2.389378         1.711805         1.124753
 H         2.827562        -0.147009         1.495593
 H         1.506709         1.745574        -1.431453
 H         1.791496         0.289547        -2.374115
 H         5.386063        -1.666208        -1.189791
 H         5.062559        -1.311639         0.649589
 H         3.060774        -1.476623        -1.855695
