19
Iteration:  3074
 C        -0.078371         0.030226         0.250788
 C         1.361845        -0.035256        -0.127623
 C         2.493452         0.616991         0.738436
 C         3.226247         0.363323        -0.659750
 C         2.004443         0.847615        -1.357152
 O         4.579882         0.286275        -0.850139
 C         4.610859        -1.096356        -0.330565
 C         3.166138        -1.124132        -0.928051
 O         1.893069        -1.486780        -0.463914
 H        -0.436618        -0.007446         1.304847
 H        -0.397300         0.978402        -0.017671
 H        -0.660511        -0.704476        -0.314221
 H         2.269812         1.625123         0.833910
 H         2.715318        -0.094432         1.551892
 H         1.708028         1.887103        -1.167786
 H         1.826343         0.657048        -2.362681
 H         5.551144        -1.547256        -0.792503
 H         4.729689        -1.123886         0.734915
 H         3.280404        -1.274188        -2.040846
