19
Iteration:  4688charge 0 multiplicity 1
 C        -0.144163         0.011938         0.115614
 C         1.339809        -0.000749        -0.110374
 C         2.528144         0.530534         0.670005
 C         3.239906         0.338582        -0.695573
 C         1.941622         0.846063        -1.388414
 O         4.721056         0.328479        -0.834276
 C         4.721554        -1.093193        -0.400224
 C         3.151746        -1.124507        -0.817448
 O         1.772615        -1.446360        -0.269869
 H        -0.686485        -0.021701        -0.871950
 H        -0.483982        -0.815408         0.812595
 H        -0.363019         0.949260         0.639148
 H         2.324668         1.570592         0.808517
 H         2.886947         0.084586         1.612777
 H         1.588219         1.883627        -1.448436
 H         1.699732         0.369477        -2.366077
 H         5.474378        -1.555001        -1.035612
 H         4.822166        -0.870424         0.656996
 H         3.066216        -1.393497        -1.877890
