19
Iteration:   382charge 0 multiplicity 1
 C        -0.007866         0.064346         0.333038
 C         1.357298        -0.011124        -0.163080
 C         2.504178         0.459084         0.723182
 C         3.241742         0.375547        -0.660916
 C         1.937720         0.946779        -1.350211
 O         4.646067         0.256560        -0.807498
 C         4.588063        -1.140228        -0.332460
 C         3.137167        -1.087912        -0.952393
 O         1.855596        -1.416421        -0.542464
 H        -0.490514        -0.942188         0.708734
 H         0.038500         0.822833         1.109694
 H        -0.648249         0.263533        -0.536074
 H         2.236543         1.385694         1.204030
 H         2.593256        -0.258646         1.550337
 H         1.702904         2.052349        -1.280882
 H         1.848311         0.658296        -2.473898
 H         5.412653        -1.742132        -0.822355
 H         4.535758        -1.277734         0.759150
 H         3.214890        -1.259831        -2.050858
