19
Iteration:   410charge 0 multiplicity 1
 C        -0.134550        -0.022498         0.251774
 C         1.345901         0.019748        -0.092088
 C         2.620159         0.553224         0.742115
 C         3.279755         0.356106        -0.719200
 C         1.910132         0.940037        -1.356300
 O         4.767134         0.329332        -0.637433
 C         4.553293        -1.208449        -0.509944
 C         3.106038        -1.134861        -0.993976
 O         1.825618        -1.383412        -0.450262
 H        -0.423874        -0.918529         0.625324
 H        -0.282370         0.834485         0.904217
 H        -0.777633        -0.042157        -0.650254
 H         2.472119         1.634520         0.925912
 H         2.740633         0.001223         1.691884
 H         1.526572         1.924699        -1.155397
 H         1.895046         0.573599        -2.351951
 H         5.176588        -1.736396        -1.211760
 H         4.579768        -1.520019         0.531516
 H         3.015712        -1.498786        -2.030379
