19
Iteration:  3275
 C        -0.100297        -0.106972         0.380643
 C         1.335920         0.067823        -0.132750
 C         2.592372         0.720926         0.499567
 C         3.220540         0.332148        -0.799275
 C         1.925871         0.787002        -1.545502
 O         4.681412         0.365753        -0.705290
 C         4.575497        -1.096190        -0.238758
 C         3.116328        -1.156734        -0.854457
 O         1.869458        -1.495436        -0.429511
 H        -0.777476         0.307842        -0.282364
 H        -0.355293        -1.090669         0.802410
 H        -0.020345         0.612431         1.197507
 H         2.414082         1.778438         0.646386
 H         3.072237         0.510785         1.448571
 H         1.660821         1.850176        -1.543443
 H         1.633198         0.252334        -2.453415
 H         5.321650        -1.761502        -0.589392
 H         4.535287        -1.005569         0.880355
 H         3.275970        -1.534167        -1.925913
