19
Iteration:   411charge 0 multiplicity 1
 C        -0.141414        -0.025371         0.252761
 C         1.348120         0.022805        -0.081758
 C         2.612589         0.560831         0.739756
 C         3.285440         0.351441        -0.709950
 C         1.901130         0.956432        -1.360574
 O         4.763252         0.326232        -0.639396
 C         4.560536        -1.211765        -0.507613
 C         3.101158        -1.137260        -0.997623
 O         1.837108        -1.381489        -0.447803
 H        -0.430850        -0.926651         0.643326
 H        -0.324274         0.824731         0.843915
 H        -0.769131        -0.037472        -0.652684
 H         2.485520         1.605193         0.923020
 H         2.728509        -0.013062         1.642832
 H         1.598436         1.917345        -1.158607
 H         1.898168         0.545230        -2.349727
 H         5.186915        -1.717098        -1.242692
 H         4.580781        -1.549552         0.501876
 H         3.004628        -1.541854        -2.030377
