19
Iteration:  2646
 C        -0.090965        -0.029499         0.283105
 C         1.348854        -0.013506        -0.249313
 C         2.564176         0.529488         0.645041
 C         3.189793         0.350402        -0.687083
 C         1.919910         0.827338        -1.481301
 O         4.729138         0.311790        -0.793175
 C         4.575930        -1.095006        -0.270761
 C         3.142669        -1.066763        -0.922401
 O         1.843429        -1.340656        -0.323647
 H        -0.096340        -1.064149         0.589226
 H        -0.241550         0.661018         1.166835
 H        -0.828108         0.105143        -0.470848
 H         2.528965         1.623932         0.943087
 H         2.810245        -0.117820         1.495042
 H         1.628999         1.826246        -1.584120
 H         1.865493         0.350889        -2.445341
 H         5.265156        -1.750126        -0.721468
 H         4.561594        -1.322830         0.784923
 H         3.110289        -1.449723        -1.955197
