19
Iteration:  2194
 C        -0.131632         0.057287         0.177918
 C         1.319865        -0.001706        -0.232186
 C         2.486990         0.479684         0.691546
 C         3.247420         0.336513        -0.631215
 C         1.969478         0.819792        -1.318706
 O         4.776871         0.309642        -0.780975
 C         4.629871        -1.075687        -0.422835
 C         3.130455        -1.107564        -0.974485
 O         1.827111        -1.376937        -0.304321
 H        -0.313767        -0.850660         0.578512
 H        -0.205992         0.781693         0.973314
 H        -0.937774         0.400020        -0.515424
 H         2.223933         1.472380         1.147424
 H         2.708779        -0.341438         1.418132
 H         1.978850         1.837397        -1.231403
 H         1.841654         0.501117        -2.344231
 H         5.327237        -1.621666        -1.039383
 H         4.562983        -1.486619         0.601072
 H         2.895401        -1.289545        -1.961570
