19
Iteration:  1943
 C        -0.094017         0.002195         0.275919
 C         1.353537         0.004344        -0.148281
 C         2.482158         0.471530         0.748071
 C         3.307444         0.315243        -0.680520
 C         1.899424         0.827894        -1.380464
 O         4.780992         0.281885        -0.760294
 C         4.649443        -1.095409        -0.400476
 C         3.127789        -1.050266        -0.958368
 O         1.757334        -1.348892        -0.458016
 H        -0.412249        -0.470766         1.147801
 H        -0.480858         1.109316         0.478280
 H        -0.662201        -0.325039        -0.629209
 H         2.365448         1.516259         1.031789
 H         2.944979        -0.111223         1.563464
 H         1.637978         1.851541        -1.061903
 H         1.735486         0.617662        -2.411225
 H         5.188276        -1.804671        -0.966267
 H         4.805735        -1.215729         0.680953
 H         3.127082        -1.378540        -2.072058
