19
Iteration:  3966
 C        -0.156703         0.027320         0.247880
 C         1.369794         0.002892        -0.171727
 C         2.472972         0.531768         0.637207
 C         3.236026         0.324218        -0.764989
 C         1.817180         0.786392        -1.501956
 O         4.716297         0.357870        -0.770447
 C         4.645076        -1.054421        -0.322487
 C         3.162132        -1.124777        -0.919430
 O         1.935189        -1.395578        -0.246684
 H        -0.820437         0.268204        -0.563127
 H        -0.237173        -1.057733         0.569060
 H        -0.192757         0.925488         0.918012
 H         2.665676         1.546643         0.979880
 H         2.702259        -0.257573         1.417824
 H         1.717908         1.929570        -1.392212
 H         1.579560         0.334418        -2.455528
 H         5.207094        -1.944827        -0.757190
 H         4.733176        -1.016805         0.804701
 H         3.234690        -1.616483        -1.957703
