19
Iteration:  3070charge 0 multiplicity 1
 C        -0.106945         0.038365         0.253867
 C         1.366946        -0.022028        -0.126107
 C         2.482720         0.579597         0.743236
 C         3.226406         0.354688        -0.645636
 C         1.997905         0.839135        -1.353994
 O         4.627537         0.290181        -0.856302
 C         4.625939        -1.086459        -0.367481
 C         3.182074        -1.113919        -0.940233
 O         1.872271        -1.494641        -0.434378
 H        -0.440731        -0.047974         1.266067
 H        -0.467320         1.008498        -0.218399
 H        -0.670441        -0.737180        -0.305746
 H         2.186106         1.637761         0.970837
 H         2.763601         0.048643         1.661471
 H         1.707958         1.905921        -1.251375
 H         1.811437         0.705003        -2.460533
 H         5.472633        -1.600327        -0.795728
 H         4.675534        -1.082490         0.759808
 H         3.235215        -1.223815        -2.000251
