19
Iteration:  1513
 C        -0.031653         0.031660         0.351184
 C         1.378798        -0.038105        -0.199390
 C         2.512699         0.528838         0.645463
 C         3.212881         0.350970        -0.649487
 C         1.944044         0.978148        -1.339286
 O         4.648363         0.318540        -0.683107
 C         4.603632        -1.187047        -0.430470
 C         3.161742        -1.145801        -1.009789
 O         1.833569        -1.418629        -0.514903
 H        -0.173320        -0.182900         1.438746
 H        -0.443189         0.912656         0.420098
 H        -0.810160        -0.643190        -0.144701
 H         2.302553         1.499156         1.088239
 H         2.824682        -0.056803         1.512754
 H         1.811091         2.009241        -0.999263
 H         1.842192         0.747895        -2.422465
 H         5.255181        -1.827671        -0.992540
 H         4.688129        -1.377493         0.650041
 H         3.176014        -1.280925        -2.067006
