19
Iteration:   622charge 0 multiplicity 1
 C        -0.155964         0.135127         0.189522
 C         1.295898        -0.092485        -0.163862
 C         2.547612         0.436559         0.784487
 C         3.269673         0.354745        -0.606542
 C         1.949481         0.974022        -1.280191
 O         4.727881         0.325805        -0.924188
 C         4.639828        -1.134024        -0.462352
 C         3.161885        -1.107994        -0.817475
 O         1.819578        -1.480851        -0.451429
 H        -0.490575        -0.658215         1.053532
 H        -0.409123         1.199072         0.613148
 H        -0.929281        -0.112536        -0.591741
 H         2.340016         1.463406         1.078275
 H         2.652148        -0.264538         1.625150
 H         1.554359         2.023770        -1.015409
 H         1.806407         0.704858        -2.317731
 H         5.341982        -1.837831        -1.060177
 H         5.135159        -1.069452         0.584219
 H         3.310519        -1.339668        -1.947387
