19
Iteration:  1743charge 0 multiplicity 1
 C        -0.104556        -0.029712         0.109000
 C         1.340520         0.025100        -0.162461
 C         2.508863         0.430955         0.736373
 C         3.273734         0.371148        -0.624827
 C         1.969952         0.970224        -1.320129
 O         4.745452         0.310571        -0.726782
 C         4.567643        -1.162073        -0.556263
 C         3.029556        -1.111250        -0.982260
 O         1.879261        -1.385246        -0.253571
 H        -0.157701        -0.644231         1.141862
 H        -0.366042         1.012989         0.284870
 H        -0.910032        -0.438852        -0.524200
 H         2.229113         1.509361         0.976458
 H         2.806868        -0.117435         1.660433
 H         1.726349         1.998821        -1.171312
 H         1.851305         0.626131        -2.341789
 H         5.336657        -1.476148        -1.304983
 H         4.855576        -1.509745         0.420050
 H         3.175358        -1.275112        -2.101085
