19
Iteration:  3435charge 0 multiplicity 1
 C        -0.087708         0.046371         0.355223
 C         1.341271        -0.096006        -0.117622
 C         2.534419         0.555852         0.578059
 C         3.173948         0.392157        -0.789073
 C         1.895458         0.831343        -1.485267
 O         4.668027         0.308824        -0.800911
 C         4.547726        -1.051257        -0.208622
 C         3.206359        -1.152183        -0.886928
 O         1.915290        -1.436161        -0.477355
 H        -0.689515        -0.872278         0.243769
 H        -0.166115         0.128878         1.524273
 H        -0.554012         0.985481         0.025667
 H         2.431746         1.593910         0.963096
 H         2.987313        -0.004175         1.391751
 H         1.675322         1.870177        -1.241884
 H         1.679436         0.620705        -2.611503
 H         5.437804        -1.576871        -0.498062
 H         4.679409        -1.023762         0.886054
 H         3.416190        -1.580292        -1.849367
