19
Iteration:  4128
 C        -0.024482        -0.063840         0.235412
 C         1.392881         0.037304        -0.196780
 C         2.532858         0.638142         0.614289
 C         3.228062         0.366965        -0.754901
 C         1.968809         0.806161        -1.373593
 O         4.629933         0.347966        -0.803739
 C         4.585106        -1.098579        -0.284170
 C         3.078688        -1.143944        -0.933746
 O         1.881604        -1.454586        -0.295441
 H        -0.623290        -0.866619        -0.139073
 H        -0.168877        -0.232335         1.304825
 H        -0.598816         0.785363        -0.111335
 H         2.380669         1.657483         0.552897
 H         2.832475         0.090194         1.504464
 H         1.676802         1.890419        -1.083583
 H         1.701260         0.650116        -2.420471
 H         5.481891        -1.617385        -0.725004
 H         4.524293        -1.224876         0.769038
 H         3.037788        -1.509294        -2.001245
