19
Iteration:   945
 C        -0.088289        -0.081116         0.122599
 C         1.334475         0.100369        -0.005280
 C         2.516214         0.507753         0.805363
 C         3.267994         0.373209        -0.590358
 C         1.975687         0.945531        -1.337788
 O         4.770084         0.335930        -0.793530
 C         4.558334        -1.275955        -0.538369
 C         3.140935        -1.100773        -0.992036
 O         1.786147        -1.351904        -0.398181
 H        -0.281059        -0.949538         0.744475
 H        -0.479388         0.704983         0.735428
 H        -0.826074        -0.289828        -0.759772
 H         2.516573         1.609745         0.857822
 H         2.829653         0.064950         1.736069
 H         1.774977         1.997326        -1.140390
 H         1.746547         0.416871        -2.225252
 H         5.244020        -1.895537        -1.176914
 H         4.624876        -1.270117         0.564674
 H         3.058758        -1.332493        -2.095053
