19
Iteration:  3185
 C        -0.189287         0.017528         0.082896
 C         1.312842         0.113957        -0.159762
 C         2.506220         0.517004         0.649636
 C         3.173232         0.363266        -0.715198
 C         1.931530         0.747060        -1.320828
 O         4.650506         0.367761        -0.864936
 C         4.698742        -1.144292        -0.386826
 C         3.184100        -1.105117        -0.823187
 O         1.929293        -1.430275        -0.182457
 H        -0.476996        -0.950736        -0.381068
 H        -0.458127         0.418196         1.118693
 H        -0.710970         0.665412        -0.588016
 H         2.685111         1.473020         1.318362
 H         2.824198        -0.265467         1.357042
 H         1.548466         1.762586        -1.360670
 H         1.741830         0.471862        -2.406458
 H         5.260924        -1.760773        -1.143362
 H         5.208704        -1.085561         0.599131
 H         3.259909        -1.414689        -1.926109
