19
Iteration:  4233charge 0 multiplicity 1
 C        -0.105933        -0.005368         0.338671
 C         1.377807         0.011497        -0.212401
 C         2.495454         0.593287         0.556536
 C         3.241922         0.410241        -0.838447
 C         1.811663         0.741438        -1.470206
 O         4.742931         0.299355        -0.822420
 C         4.581849        -1.059571        -0.161434
 C         3.135341        -1.128036        -0.884678
 O         1.890098        -1.379786        -0.349588
 H        -0.890534         0.041050        -0.480921
 H        -0.076468        -0.962663         0.903416
 H        -0.227365         0.788820         1.097358
 H         2.554201         1.552373         1.188519
 H         2.803557        -0.157683         1.355928
 H         1.575213         1.820597        -1.511542
 H         1.656582         0.175674        -2.361583
 H         5.312599        -1.781895        -0.692819
 H         4.859350        -0.983502         0.917526
 H         3.415614        -1.538957        -1.865879
