19
Iteration:   370charge 0 multiplicity 1
 C        -0.114490         0.088597         0.340782
 C         1.382223        -0.006258        -0.200051
 C         2.450030         0.389888         0.811187
 C         3.234840         0.336923        -0.720625
 C         2.010673         0.968345        -1.340826
 O         4.714146         0.324936        -0.846358
 C         4.552149        -1.115405        -0.310669
 C         3.182252        -1.142841        -0.974065
 O         1.821788        -1.420453        -0.546092
 H        -0.285737        -0.902270         0.913049
 H        -0.235215         0.843665         1.070962
 H        -0.948091         0.389879        -0.340410
 H         2.524651         1.412622         0.952902
 H         2.747771        -0.253643         1.591492
 H         1.666126         1.928007        -0.995599
 H         1.789043         0.648684        -2.435560
 H         5.296173        -1.860383        -0.736148
 H         4.687357        -0.952976         0.731798
 H         3.380415        -1.533155        -2.012337
