19
Iteration:  3313charge 0 multiplicity 1
 C        -0.125910        -0.005069         0.198521
 C         1.322825        -0.031453        -0.188946
 C         2.492236         0.539216         0.626878
 C         3.293627         0.397096        -0.706423
 C         1.886837         0.710804        -1.482662
 O         4.746577         0.364476        -0.911715
 C         4.608196        -1.029395        -0.278570
 C         3.144157        -1.107832        -0.830357
 O         1.838406        -1.394432        -0.216585
 H        -0.947718         0.499487        -0.466947
 H        -0.616096        -0.948760         0.551112
 H        -0.017715         0.576880         1.143426
 H         2.501294         1.608932         0.996814
 H         2.846116        -0.258695         1.294015
 H         1.721698         1.823198        -1.549511
 H         1.849476         0.196543        -2.481884
 H         5.392160        -1.755049        -0.696015
 H         4.852728        -0.976978         0.773936
 H         3.164138        -1.539092        -1.832669
