19
Iteration:  1200charge 0 multiplicity 1
 C        -0.008770        -0.073584         0.226319
 C         1.423598        -0.009794        -0.163155
 C         2.526439         0.516684         0.711858
 C         3.244064         0.408794        -0.689502
 C         1.963309         0.932014        -1.328709
 O         4.768883         0.333323        -0.752052
 C         4.498095        -1.204979        -0.386946
 C         3.037851        -1.088876        -0.952134
 O         1.774171        -1.364263        -0.451883
 H        -0.190628        -1.079624         0.735090
 H        -0.100752         0.957414         0.837629
 H        -0.621711         0.010581        -0.655083
 H         2.521810         1.569082         1.040825
 H         2.958516        -0.069405         1.588718
 H         1.760283         1.931966        -1.100463
 H         1.734919         0.505494        -2.282947
 H         5.235585        -1.825377        -0.870352
 H         4.520564        -1.325333         0.701299
 H         2.846853        -1.514827        -2.006702
