19
Iteration:   278
 C        -0.063419        -0.045504         0.221687
 C         1.341902         0.028973        -0.146480
 C         2.436433         0.528910         0.703341
 C         3.303945         0.390455        -0.607609
 C         2.040513         0.988797        -1.322494
 O         4.690363         0.308517        -0.669891
 C         4.569672        -1.267115        -0.649442
 C         3.085085        -1.104409        -0.895834
 O         1.857063        -1.377469        -0.359682
 H        -0.252461        -0.195320         1.253007
 H        -0.597175         0.831670        -0.279501
 H        -0.462584        -0.820985        -0.460380
 H         2.278373         1.629332         0.939140
 H         2.827901        -0.263338         1.408995
 H         1.744224         2.008284        -0.817372
 H         1.716449         0.825574        -2.360187
 H         5.000212        -1.821673        -1.457086
 H         4.997032        -1.584117         0.344223
 H         2.992015        -1.320896        -1.985405
