19
Iteration:  4551
 C        -0.081879         0.036172         0.305424
 C         1.347269        -0.015234        -0.190670
 C         2.490518         0.572424         0.646072
 C         3.250376         0.335102        -0.680782
 C         1.890677         0.818147        -1.417155
 O         4.726896         0.302602        -0.737672
 C         4.682562        -1.103613        -0.345846
 C         3.107442        -1.165120        -0.934667
 O         1.822216        -1.359979        -0.417539
 H        -0.470674        -0.881945        -0.125965
 H        -0.018675        -0.080588         1.360702
 H        -0.715481         0.795967        -0.070395
 H         2.390463         1.663264         0.790113
 H         2.752711         0.168368         1.650304
 H         1.558318         1.823806        -1.375190
 H         1.670893         0.316012        -2.347443
 H         5.462641        -1.503851        -0.949543
 H         4.792288        -1.099445         0.688756
 H         3.118470        -1.593598        -1.985458
