19
Iteration:  2658
 C        -0.114796         0.006249         0.295487
 C         1.320295         0.043824        -0.164970
 C         2.401800         0.586082         0.651613
 C         3.297325         0.406358        -0.711048
 C         1.928748         0.770773        -1.445930
 O         4.740956         0.296505        -0.793457
 C         4.606584        -1.118078        -0.363293
 C         3.195960        -1.138608        -0.911374
 O         1.873807        -1.446532        -0.361548
 H        -0.573546        -0.836758         0.702842
 H        -0.288698         0.825614         1.069330
 H        -0.731213         0.369902        -0.530685
 H         2.428172         1.686627         0.924602
 H         2.561284        -0.073802         1.532296
 H         1.603586         1.732216        -1.208611
 H         1.760926         0.477808        -2.476667
 H         5.405996        -1.634384        -0.759787
 H         4.627782        -0.990992         0.712619
 H         3.312866        -1.415623        -1.953293
