19
Iteration:  1342
 C        -0.057385        -0.094488         0.320432
 C         1.347765         0.018304        -0.161609
 C         2.573694         0.592804         0.680802
 C         3.296002         0.366742        -0.632595
 C         1.956863         0.907120        -1.390804
 O         4.737913         0.268652        -0.710461
 C         4.534734        -1.142605        -0.408286
 C         3.080533        -1.091808        -1.019116
 O         1.788859        -1.349929        -0.474528
 H        -0.062732        -0.915979         1.006335
 H        -0.470241         0.906994         0.741993
 H        -0.695225        -0.428295        -0.459744
 H         2.501624         1.632903         1.005008
 H         2.739574         0.035529         1.631248
 H         1.742013         1.918338        -1.232026
 H         1.788600         0.390922        -2.299585
 H         5.278487        -1.787216        -0.850338
 H         4.299005        -1.426259         0.629151
 H         3.235367        -1.271310        -2.140292
