19
Iteration:  4269charge 0 multiplicity 1
 C         0.002905        -0.066303         0.335606
 C         1.343876        -0.013366        -0.162508
 C         2.498476         0.763286         0.561690
 C         3.268095         0.335509        -0.736126
 C         2.012500         0.806970        -1.409278
 O         4.658517         0.323985        -0.819806
 C         4.580401        -1.066454        -0.227363
 C         3.099947        -1.182467        -0.928195
 O         1.823070        -1.442516        -0.414636
 H        -0.757128        -0.698582        -0.228670
 H         0.078428        -0.603599         1.346945
 H        -0.430850         0.968943         0.554301
 H         2.108054         1.781161         0.618513
 H         2.667454         0.212469         1.531913
 H         1.601165         1.834167        -1.337905
 H         1.733767         0.430455        -2.418639
 H         5.214692        -1.820131        -0.764465
 H         4.755867        -1.000459         0.831804
 H         3.220535        -1.708949        -1.853298
