19
Iteration:  3753charge 0 multiplicity 1
 C        -0.007767        -0.050731         0.435397
 C         1.345530         0.028903        -0.228742
 C         2.442444         0.636461         0.496121
 C         3.255544         0.379278        -0.790784
 C         1.925219         0.844357        -1.546675
 O         4.739401         0.325192        -0.739528
 C         4.544730        -1.086035        -0.286759
 C         3.175364        -1.178401        -0.862473
 O         1.826352        -1.490823        -0.349336
 H        -0.969653         0.027285        -0.073731
 H        -0.139799        -0.892838         1.086529
 H        -0.269197         0.919465         0.999555
 H         2.359397         1.700341         0.686503
 H         2.860749         0.214741         1.429194
 H         1.700672         1.956212        -1.338618
 H         1.658881         0.621375        -2.608724
 H         5.207721        -1.897694        -0.563191
 H         4.551550        -0.879297         0.876584
 H         3.386812        -1.586607        -1.929820
