19
Iteration:  4195charge 0 multiplicity 1
 C        -0.143402         0.049105         0.159110
 C         1.320597        -0.046839        -0.099012
 C         2.475236         0.680519         0.687281
 C         3.264334         0.311862        -0.723566
 C         1.997205         0.753946        -1.402525
 O         4.603613         0.335459        -0.866693
 C         4.705138        -1.044127        -0.387779
 C         3.124716        -1.152970        -0.841926
 O         1.900973        -1.485435        -0.241579
 H        -0.662367         0.166836        -0.748496
 H        -0.601729        -0.808787         0.605096
 H        -0.362141         0.872162         0.825880
 H         2.288097         1.675047         0.704325
 H         2.926155         0.211316         1.514599
 H         1.724288         1.818171        -1.403903
 H         1.871846         0.404773        -2.459915
 H         5.420863        -1.453194        -1.043499
 H         4.989866        -1.145565         0.652198
 H         2.975313        -1.540149        -1.865160
