19
Iteration:    25
 C        -0.160159        -0.111065         0.361870
 C         1.321307         0.137528        -0.075818
 C         2.528330         0.630519         0.668736
 C         3.273187         0.329034        -0.715192
 C         1.854363         0.897977        -1.370662
 O         4.797527         0.267337        -0.653835
 C         4.666228        -1.229752        -0.448280
 C         3.157172        -1.129982        -1.008144
 O         1.789325        -1.324898        -0.525570
 H        -0.068972        -0.305935         1.494691
 H        -0.873834         0.639243         0.246398
 H        -0.555197        -0.905887        -0.183938
 H         2.541044         1.674741         0.829912
 H         2.663248         0.057589         1.555861
 H         1.751526         1.964030        -1.239765
 H         1.617422         0.496047        -2.405826
 H         5.421215        -1.722340        -1.107748
 H         4.843122        -1.497997         0.547246
 H         3.156880        -1.341263        -2.075944
