19
Iteration:  3180charge 0 multiplicity 1
 C        -0.232942         0.020579         0.114990
 C         1.289598         0.040567        -0.148913
 C         2.512312         0.545043         0.625287
 C         3.224738         0.353663        -0.701770
 C         1.943725         0.778960        -1.371770
 O         4.657064         0.365789        -0.849235
 C         4.690731        -1.150007        -0.406594
 C         3.125954        -1.086936        -0.806181
 O         1.975062        -1.420703        -0.195523
 H        -0.524005        -1.022520        -0.161099
 H        -0.589239         0.350490         1.058999
 H        -0.606376         0.730649        -0.696234
 H         2.671160         1.403451         1.169443
 H         2.823149        -0.247805         1.308509
 H         1.702476         1.891292        -1.212080
 H         1.749893         0.329932        -2.327427
 H         5.314481        -1.767529        -1.082125
 H         5.087204        -1.123165         0.604832
 H         3.177524        -1.261779        -1.858730
