19
Iteration:  2454
 C        -0.054377         0.019941         0.352359
 C         1.347370        -0.001221        -0.191080
 C         2.474328         0.536941         0.618123
 C         3.277747         0.387832        -0.735376
 C         1.887127         0.833662        -1.441439
 O         4.802521         0.339085        -0.727087
 C         4.637122        -1.095338        -0.311418
 C         3.181953        -1.159667        -0.954373
 O         1.707119        -1.411387        -0.405592
 H        -0.325014        -0.894217         0.778813
 H        -0.159036         0.944367         0.981244
 H        -0.687097         0.292758        -0.551680
 H         2.385558         1.497522         1.030441
 H         2.543963        -0.228892         1.333374
 H         1.443884         1.822904        -1.361501
 H         1.825600         0.414163        -2.483774
 H         5.330094        -1.823683        -0.701003
 H         4.730380        -1.076200         0.789250
 H         3.312917        -1.631360        -1.993768
