19
Iteration:  3219
 C        -0.115019        -0.017577         0.163046
 C         1.315414        -0.067349        -0.083278
 C         2.516309         0.658305         0.624316
 C         3.230931         0.339954        -0.679224
 C         2.032107         0.764973        -1.363558
 O         4.626849         0.355422        -0.890048
 C         4.669873        -1.037657        -0.330886
 C         3.166733        -1.140208        -0.899608
 O         1.812302        -1.460787        -0.279702
 H        -0.770962        -0.541534        -0.498095
 H        -0.470777        -0.382570         1.212249
 H        -0.326487         1.040868         0.107049
 H         2.218916         1.764115         0.554429
 H         2.932912         0.184768         1.521577
 H         1.735400         1.763260        -1.119840
 H         2.031942         0.518381        -2.477047
 H         5.389607        -1.680959        -0.817912
 H         4.884546        -1.052890         0.782495
 H         3.119588        -1.512564        -1.975345
