19
Iteration:  1460charge 0 multiplicity 1
 C        -0.003343        -0.040640         0.248709
 C         1.407822         0.018641        -0.119872
 C         2.562768         0.534635         0.745335
 C         3.221194         0.360215        -0.666919
 C         1.972862         0.932495        -1.328025
 O         4.634940         0.271132        -0.732315
 C         4.525026        -1.164570        -0.443853
 C         3.077883        -1.055756        -1.020416
 O         1.875457        -1.385432        -0.452828
 H        -0.215441        -0.461486         1.290178
 H        -0.689787         0.870153         0.124927
 H        -0.676477        -0.775749        -0.336066
 H         2.677735         1.548114         1.023409
 H         2.819989        -0.068397         1.603473
 H         1.745878         2.025424        -1.148868
 H         1.792689         0.548060        -2.437366
 H         5.269336        -1.783633        -0.993760
 H         4.522542        -1.387320         0.663798
 H         2.988555        -1.280321        -2.066961
