19
Iteration:   257
 C        -0.135859        -0.036291         0.198726
 C         1.355413         0.059978        -0.128519
 C         2.603275         0.490421         0.853860
 C         3.224418         0.358044        -0.626728
 C         1.992096         0.901861        -1.292112
 O         4.717441         0.279885        -0.714834
 C         4.654357        -1.105324        -0.552122
 C         3.096425        -1.149447        -1.028875
 O         1.746210        -1.365718        -0.429740
 H        -0.138281        -0.115075         1.250337
 H        -0.642124         0.998324        -0.003810
 H        -0.761794        -0.666280        -0.501027
 H         2.604969         1.613284         0.979597
 H         2.989660        -0.338687         1.525796
 H         1.725485         2.078993        -1.285257
 H         1.769408         0.461671        -2.315338
 H         5.387811        -1.682713        -1.095654
 H         4.717590        -1.455577         0.539117
 H         3.015522        -1.327155        -2.125448
