19
Iteration:  1508charge 0 multiplicity 1
 C        -0.044695        -0.019094         0.351609
 C         1.346939        -0.021597        -0.184819
 C         2.503300         0.560122         0.642941
 C         3.207937         0.340334        -0.685513
 C         1.959479         0.975597        -1.337864
 O         4.698782         0.280453        -0.663266
 C         4.616094        -1.167330        -0.421782
 C         3.175991        -1.104188        -1.009735
 O         1.794490        -1.433615        -0.518507
 H         0.058252        -0.197516         1.435263
 H        -0.448762         1.149335         0.271160
 H        -0.861537        -0.628707         0.017137
 H         2.169158         1.533162         1.096161
 H         2.852226         0.006676         1.542444
 H         1.687883         1.968088        -0.959522
 H         1.757652         0.845296        -2.396881
 H         5.247674        -1.779533        -1.118788
 H         4.819357        -1.446242         0.622753
 H         3.215020        -1.346527        -2.124026
