19
Iteration:   554charge 0 multiplicity 1
 C        -0.057387        -0.080857         0.300374
 C         1.402124        -0.022005        -0.190300
 C         2.507154         0.603944         0.715067
 C         3.223573         0.403584        -0.659104
 C         1.867252         1.002527        -1.380721
 O         4.778801         0.200860        -0.726697
 C         4.625243        -1.189196        -0.434709
 C         3.131331        -1.096155        -0.963770
 O         1.802155        -1.337789        -0.445761
 H        -0.165521        -1.055394         0.942510
 H        -0.242811         0.818120         0.867335
 H        -0.888796         0.029981        -0.558569
 H         2.287932         1.657798         1.010095
 H         2.706463        -0.014138         1.615616
 H         1.481962         1.957182        -1.113430
 H         1.662848         0.634789        -2.393465
 H         5.201225        -2.019026        -1.046745
 H         4.789825        -1.518081         0.609016
 H         3.055479        -1.335957        -2.075865
