19
Iteration:  1936
 C        -0.125120         0.064393         0.247716
 C         1.329829         0.002038        -0.162510
 C         2.492132         0.413685         0.751271
 C         3.246334         0.346196        -0.634353
 C         1.950235         0.823848        -1.326409
 O         4.796797         0.282032        -0.804031
 C         4.650590        -1.093487        -0.406315
 C         3.113393        -1.088719        -0.983428
 O         1.802133        -1.318419        -0.418856
 H        -0.422239        -0.491393         1.200506
 H        -0.648380         0.971090         0.267753
 H        -0.577739        -0.596307        -0.593088
 H         2.612739         1.467007         1.004590
 H         2.617774        -0.333899         1.512675
 H         1.680196         1.879162        -1.188600
 H         1.679174         0.543000        -2.424350
 H         5.311382        -1.773209        -0.999989
 H         4.849252        -0.973939         0.682113
 H         3.000392        -1.298439        -1.985914
