19
Iteration:   385charge 0 multiplicity 1
 C         0.005693         0.055946         0.318494
 C         1.356939        -0.022748        -0.159079
 C         2.512335         0.479114         0.681088
 C         3.254126         0.380331        -0.624480
 C         1.927658         0.921710        -1.349887
 O         4.648333         0.249078        -0.792074
 C         4.596126        -1.138440        -0.339050
 C         3.126617        -1.058370        -0.972227
 O         1.835535        -1.418396        -0.526856
 H        -0.471336        -0.933339         0.606574
 H         0.075113         0.873404         1.138329
 H        -0.678280         0.191042        -0.537074
 H         2.216580         1.473760         1.216264
 H         2.708872        -0.325274         1.514537
 H         1.784141         2.112476        -1.217620
 H         1.809194         0.584713        -2.403431
 H         5.374832        -1.688851        -0.872985
 H         4.506132        -1.335425         0.780238
 H         3.148758        -1.231901        -2.045482
