19
Iteration:  4754charge 0 multiplicity 1
 C        -0.085276        -0.074171         0.344846
 C         1.340523        -0.050259        -0.227346
 C         2.567586         0.628853         0.597201
 C         3.280036         0.439821        -0.747908
 C         1.843269         0.823497        -1.471549
 O         4.781397         0.322936        -0.681577
 C         4.549903        -1.172180        -0.290782
 C         3.143779        -1.072175        -0.920208
 O         1.844160        -1.413432        -0.424678
 H        -0.745676        -0.990075         0.261673
 H        -0.085312         0.280591         1.393847
 H        -0.567443         0.806740         0.026477
 H         2.446445         1.646465         0.736298
 H         2.866614        -0.012187         1.447404
 H         1.620332         1.880706        -1.473027
 H         1.615570         0.526982        -2.508763
 H         5.170805        -1.962057        -0.676293
 H         4.376567        -1.189216         0.789388
 H         3.191386        -1.396523        -1.968962
