19
Iteration:   518charge 0 multiplicity 1
 C        -0.091312        -0.036979         0.375838
 C         1.354054        -0.017743        -0.180293
 C         2.605792         0.496986         0.737509
 C         3.215088         0.331514        -0.647086
 C         2.023005         0.989281        -1.407419
 O         4.653466         0.278888        -0.719522
 C         4.574290        -1.113515        -0.392805
 C         3.118114        -1.132403        -1.058549
 O         1.795543        -1.375690        -0.497784
 H        -0.214494        -0.273432         1.397627
 H        -0.372366         1.051468         0.339641
 H        -0.851490        -0.514932        -0.345300
 H         2.594115         1.543108         1.164717
 H         2.952074        -0.241891         1.505182
 H         1.623029         1.989284        -1.240779
 H         1.936956         0.694889        -2.454346
 H         5.318420        -1.733521        -0.893765
 H         4.592072        -1.311935         0.696361
 H         3.216222        -1.437103        -2.081839
