19
Iteration:  2145
 C        -0.090417        -0.013660         0.290622
 C         1.406765        -0.033531        -0.208076
 C         2.542834         0.501127         0.725637
 C         3.310961         0.339052        -0.741526
 C         1.890341         0.939969        -1.327703
 O         4.751091         0.281621        -0.745568
 C         4.561519        -1.099033        -0.301462
 C         3.147139        -1.130163        -1.000722
 O         1.777061        -1.364543        -0.494941
 H        -0.189523        -0.574117         1.350334
 H        -0.579695         1.009429         0.310245
 H        -0.769386        -0.542574        -0.388720
 H         2.737800         1.527708         0.881758
 H         2.823882        -0.146338         1.546543
 H         1.515986         2.033088        -1.102208
 H         1.693095         0.657101        -2.404598
 H         5.358745        -1.851550        -0.544184
 H         4.312035        -1.002635         0.762779
 H         2.991484        -1.405051        -2.070258
