19
Iteration:  2857charge 0 multiplicity 1
 C        -0.122192        -0.053316         0.072141
 C         1.365834        -0.024746        -0.108559
 C         2.527836         0.533416         0.748693
 C         3.242602         0.411218        -0.674712
 C         1.914147         0.940085        -1.382752
 O         4.750552         0.292350        -0.831819
 C         4.578575        -1.094690        -0.473722
 C         3.134420        -1.136872        -0.906214
 O         1.846004        -1.396914        -0.203178
 H        -0.247981        -0.867018         0.852169
 H        -0.616569         0.836125         0.389487
 H        -0.679911        -0.355235        -0.853747
 H         2.527742         1.608665         0.961108
 H         2.856929        -0.202580         1.566382
 H         1.599033         1.992449        -1.168859
 H         1.800885         0.797725        -2.432890
 H         5.358629        -1.696733        -0.988886
 H         4.648939        -1.287950         0.574062
 H         3.085243        -1.626886        -1.890136
