19
Iteration:  1316charge 0 multiplicity 1
 C        -0.030996        -0.016531         0.301277
 C         1.326367        -0.022206        -0.151998
 C         2.554218         0.503081         0.727221
 C         3.235632         0.381335        -0.655236
 C         1.951751         1.002267        -1.390116
 O         4.690736         0.296770        -0.806590
 C         4.602043        -1.185670        -0.316065
 C         3.108553        -1.111208        -0.941501
 O         1.787957        -1.365322        -0.528598
 H        -0.071172        -0.522529         1.284725
 H        -0.542316         0.825762         0.122034
 H        -0.615804        -0.754666        -0.281693
 H         2.489033         1.511315         1.107745
 H         2.943744        -0.104415         1.561945
 H         1.710516         2.030605        -0.970125
 H         1.809383         0.672912        -2.471705
 H         5.199855        -1.857239        -0.965823
 H         4.677283        -1.461432         0.759021
 H         3.336045        -1.427077        -1.931803
