19
Iteration:  2727
 C        -0.173272        -0.071519         0.156216
 C         1.360599         0.042075        -0.175440
 C         2.554397         0.583352         0.692874
 C         3.256875         0.309939        -0.680582
 C         1.946082         0.927735        -1.350000
 O         4.654896         0.293693        -0.817717
 C         4.664431        -1.122813        -0.408845
 C         3.126197        -1.103643        -0.879538
 O         1.880799        -1.399567        -0.309325
 H        -0.547438        -0.390783         1.169436
 H        -0.688294         0.839407        -0.050650
 H        -0.553941        -0.857005        -0.581664
 H         2.597114         1.600481         1.107120
 H         2.660900        -0.153944         1.518099
 H         1.642975         1.997261        -1.078760
 H         1.849223         0.545407        -2.381836
 H         5.383911        -1.831528        -0.933633
 H         4.639280        -1.097850         0.677929
 H         3.194127        -1.313309        -1.927322
