19
Iteration:  3004charge 0 multiplicity 1
 C        -0.083462        -0.064335         0.182507
 C         1.386073        -0.021350        -0.148280
 C         2.444609         0.702667         0.729235
 C         3.328872         0.371652        -0.618681
 C         2.010861         0.783469        -1.324591
 O         4.706113         0.358146        -0.757386
 C         4.571216        -1.137700        -0.526971
 C         3.081644        -1.133731        -0.985687
 O         1.855368        -1.446998        -0.303646
 H        -0.426300        -0.172726         1.202918
 H        -0.584801         0.953335        -0.083036
 H        -0.452072        -0.950260        -0.316106
 H         2.294344         1.811554         0.722045
 H         2.588664         0.116993         1.613478
 H         1.716088         1.850687        -1.138172
 H         1.815805         0.840347        -2.506098
 H         5.236883        -1.808609        -1.032319
 H         4.527214        -1.440566         0.586336
 H         2.999035        -1.364772        -2.016234
