19
Iteration:  4352charge 0 multiplicity 1
 C        -0.109723        -0.009449         0.152793
 C         1.387594        -0.060271        -0.109515
 C         2.454047         0.585050         0.679626
 C         3.240291         0.327532        -0.668943
 C         2.018077         0.855007        -1.453994
 O         4.672009         0.340391        -0.904301
 C         4.597606        -1.051650        -0.440566
 C         3.122850        -1.144168        -0.830585
 O         1.854332        -1.425363        -0.189255
 H        -0.469058        -0.883619        -0.421398
 H        -0.327120        -0.180715         1.222954
 H        -0.628138         0.967964        -0.018647
 H         2.235006         1.701368         0.831486
 H         2.616126         0.025058         1.643198
 H         2.009616         1.939753        -1.145524
 H         1.995243         0.644241        -2.527962
 H         5.316891        -1.775344        -0.958476
 H         4.863114        -1.198721         0.614266
 H         3.007388        -1.482031        -1.944450
