19
Iteration:  4409charge 0 multiplicity 1
 C        -0.069577         0.011915         0.362575
 C         1.429540        -0.119874        -0.150455
 C         2.531426         0.746027         0.541566
 C         3.279560         0.423542        -0.780963
 C         1.905475         0.812374        -1.406609
 O         4.667838         0.355537        -0.768726
 C         4.538467        -1.152942        -0.208185
 C         3.160995        -1.185529        -0.928975
 O         1.824679        -1.469154        -0.448175
 H        -0.852057         0.071718        -0.422536
 H        -0.260014        -0.907800         0.920613
 H        -0.161814         0.802636         1.065403
 H         2.325520         1.809612         0.534314
 H         2.874998         0.433696         1.584294
 H         1.525857         1.799082        -1.430379
 H         1.831547         0.415530        -2.394924
 H         5.327981        -1.701110        -0.771872
 H         4.479397        -1.203363         0.897920
 H         3.288294        -1.706089        -1.922749
