19
Iteration:  2417
 C        -0.143132         0.106370         0.197625
 C         1.368917        -0.000828        -0.158914
 C         2.478334         0.534689         0.706341
 C         3.218515         0.364301        -0.679980
 C         1.942088         0.863213        -1.338414
 O         4.675922         0.321271        -0.847161
 C         4.634001        -1.123827        -0.349169
 C         3.168408        -1.140390        -0.917539
 O         1.894208        -1.495154        -0.374218
 H        -0.773013        -0.738034         0.615554
 H        -0.309799         0.918997         0.925311
 H        -0.597111         0.310330        -0.738552
 H         2.566253         1.616494         0.974285
 H         2.823874        -0.108065         1.550903
 H         1.667458         1.935554        -1.159933
 H         1.806897         0.616326        -2.382050
 H         5.352613        -1.780373        -0.882120
 H         4.750052        -1.222271         0.769911
 H         3.156434        -1.588877        -1.911475
