19
Iteration:  4753
 C        -0.084491        -0.078845         0.344472
 C         1.343828        -0.051025        -0.235392
 C         2.564728         0.640569         0.602726
 C         3.280692         0.435786        -0.751114
 C         1.846357         0.819234        -1.465520
 O         4.785990         0.326599        -0.681307
 C         4.548578        -1.166260        -0.294944
 C         3.133957        -1.073602        -0.917601
 O         1.841393        -1.423649        -0.426597
 H        -0.765785        -0.972347         0.270760
 H        -0.067002         0.301167         1.391438
 H        -0.557906         0.831117         0.037852
 H         2.443605         1.696630         0.721172
 H         2.889578        -0.049243         1.432319
 H         1.616839         1.882211        -1.434425
 H         1.616734         0.561741        -2.512122
 H         5.191075        -1.986934        -0.650646
 H         4.362891        -1.192018         0.814209
 H         3.203804        -1.406295        -1.996942
