19
Iteration:   935
 C        -0.122604        -0.024985         0.173212
 C         1.419033         0.059235        -0.139509
 C         2.524469         0.527581         0.837973
 C         3.229178         0.339596        -0.596820
 C         1.969556         0.839386        -1.264426
 O         4.716221         0.326507        -0.784321
 C         4.554377        -1.214428        -0.546051
 C         3.113844        -1.070322        -1.034091
 O         1.840412        -1.326640        -0.380338
 H        -0.240609        -0.809805         0.932967
 H        -0.620401         0.913038         0.407634
 H        -0.561572        -0.329543        -0.868619
 H         2.577043         1.560477         1.279562
 H         2.830319        -0.186138         1.610474
 H         1.739371         1.891108        -1.286559
 H         1.834980         0.550318        -2.282480
 H         5.267194        -1.972168        -0.986875
 H         4.546491        -1.439085         0.540239
 H         3.038163        -1.218916        -2.131408
