19
Iteration:   906
 C        -0.117594         0.080679         0.216590
 C         1.366824        -0.132171        -0.159803
 C         2.525750         0.448738         0.749047
 C         3.176392         0.358234        -0.701395
 C         1.972715         1.059443        -1.275282
 O         4.735638         0.367013        -0.750836
 C         4.617255        -1.176296        -0.476655
 C         3.143885        -1.109636        -0.940696
 O         1.795935        -1.496627        -0.416241
 H        -0.292762        -0.150603         1.305670
 H        -0.368287         1.150378        -0.006104
 H        -0.602610        -0.511021        -0.429645
 H         2.337451         1.532772         1.003278
 H         3.068187        -0.229624         1.430414
 H         1.733151         2.059319        -0.973596
 H         1.862297         0.993753        -2.400713
 H         5.160499        -1.916548        -1.033044
 H         4.818498        -1.394834         0.551171
 H         3.123645        -1.388050        -1.973861
