19
Iteration:  3052charge 0 multiplicity 1
 C        -0.168983         0.017945         0.100902
 C         1.309393        -0.052407        -0.173690
 C         2.496095         0.475441         0.737482
 C         3.244910         0.389638        -0.649491
 C         1.925432         0.833131        -1.309533
 O         4.868797         0.381308        -0.832730
 C         4.631619        -1.100255        -0.467954
 C         3.125483        -1.092931        -0.887844
 O         1.801646        -1.397274        -0.272519
 H        -0.256844         0.075787         1.214431
 H        -0.687321         0.845031        -0.178649
 H        -0.685014        -0.925897        -0.155766
 H         2.447083         1.487205         0.889338
 H         2.762937        -0.281242         1.502836
 H         1.565661         1.879835        -1.315199
 H         1.719643         0.467357        -2.272201
 H         5.316396        -1.787779        -1.085987
 H         4.864311        -1.245930         0.570925
 H         3.034037        -1.476539        -1.939576
