19
Iteration:  3118
 C        -0.173299        -0.042264         0.398343
 C         1.260708         0.003364        -0.192324
 C         2.505041         0.569894         0.603529
 C         3.206301         0.380448        -0.773586
 C         1.915017         0.829182        -1.479884
 O         4.825331         0.301859        -0.714248
 C         4.653627        -1.077337        -0.242706
 C         3.154800        -1.077974        -0.986489
 O         1.857884        -1.370852        -0.415319
 H        -0.296102        -1.060813         0.884837
 H        -0.309149         0.707859         1.090142
 H        -1.025073        -0.105847        -0.276611
 H         2.657283         1.595320         0.951292
 H         2.910148        -0.252634         1.227092
 H         1.477364         1.793176        -1.713404
 H         1.792343         0.413484        -2.424978
 H         5.390658        -1.853698        -0.681615
 H         4.622129        -1.167880         0.832094
 H         3.156093        -1.556797        -1.998737
