19
Iteration:  1912
 C        -0.089853         0.036390         0.144628
 C         1.379717         0.025897        -0.131336
 C         2.555950         0.476992         0.833369
 C         3.236876         0.353596        -0.657109
 C         2.037209         0.969243        -1.313644
 O         4.601830         0.326323        -0.846154
 C         4.592617        -1.154982        -0.430444
 C         3.119610        -1.130383        -0.919383
 O         1.844288        -1.504353        -0.389405
 H        -0.489922        -0.061529         1.130778
 H        -0.547844         1.023942        -0.296180
 H        -0.625020        -0.770441        -0.508625
 H         2.421901         1.488398         1.121568
 H         3.015901        -0.181128         1.515721
 H         1.866247         2.023830        -0.945468
 H         1.720045         0.955782        -2.416950
 H         5.186529        -1.744553        -1.075555
 H         4.864162        -1.066649         0.655103
 H         3.034081        -1.322680        -1.981482
