19
Iteration:  2497
 C        -0.017925        -0.110249         0.213492
 C         1.445371        -0.007807        -0.122763
 C         2.509612         0.645122         0.693661
 C         3.282447         0.347628        -0.690277
 C         2.001073         0.928202        -1.368365
 O         4.703921         0.309561        -0.778346
 C         4.507565        -1.138198        -0.362302
 C         3.043686        -1.141713        -0.942537
 O         1.791740        -1.409698        -0.383701
 H        -0.010335        -0.529952         1.172227
 H        -0.430044         0.956119         0.210965
 H        -0.543412        -0.749707        -0.523385
 H         2.250053         1.673801         0.644607
 H         2.836687         0.308412         1.640545
 H         1.847082         2.005735        -1.462768
 H         1.713881         0.309394        -2.261531
 H         5.355292        -1.642847        -0.792608
 H         4.325578        -1.306519         0.733242
 H         3.033365        -1.275203        -2.076028
