19
Iteration:  2300charge 0 multiplicity 1
 C        -0.028996         0.069107         0.297569
 C         1.352146        -0.042713        -0.244199
 C         2.557040         0.495271         0.750857
 C         3.260142         0.292779        -0.682670
 C         2.022085         0.827929        -1.330321
 O         4.674876         0.406914        -0.712767
 C         4.582265        -1.097864        -0.348868
 C         3.139236        -1.153890        -1.039195
 O         1.708591        -1.426652        -0.520683
 H        -0.045057         0.038932         1.356789
 H        -0.366456         1.184013         0.088704
 H        -0.562479        -0.805664        -0.129775
 H         2.365406         1.512384         0.891326
 H         2.883896         0.176556         1.679168
 H         1.918697         1.914500        -0.998280
 H         1.575901         0.625071        -2.322902
 H         5.220305        -1.862047        -0.666942
 H         4.574542        -1.055940         0.770734
 H         3.258628        -1.677485        -2.038812
