19
Iteration:  1365
 C        -0.083354        -0.002364         0.270001
 C         1.335541         0.012016        -0.165588
 C         2.486143         0.540376         0.627465
 C         3.230432         0.411139        -0.771473
 C         1.892074         0.975976        -1.350672
 O         4.708123         0.259464        -0.674545
 C         4.593776        -1.230415        -0.428421
 C         3.144624        -1.112819        -0.966592
 O         1.936524        -1.405602        -0.378179
 H        -0.238505        -0.933646         0.748095
 H        -0.217456         0.913548         0.995442
 H        -0.879413         0.076277        -0.469597
 H         2.311037         1.572885         1.025376
 H         2.573321        -0.076712         1.559062
 H         1.750916         1.978419        -1.049286
 H         1.562966         0.650744        -2.287348
 H         5.225853        -1.875237        -1.048422
 H         4.727202        -1.398011         0.644957
 H         3.253968        -1.273959        -2.111395
