19
Iteration:    27charge 0 multiplicity 1
 C        -0.136421        -0.105618         0.381037
 C         1.320389         0.119390        -0.077498
 C         2.533890         0.638840         0.644407
 C         3.287551         0.335939        -0.708628
 C         1.860823         0.897689        -1.386288
 O         4.780374         0.258901        -0.647545
 C         4.681934        -1.233169        -0.450848
 C         3.145720        -1.101404        -1.003037
 O         1.773757        -1.336310        -0.521061
 H        -0.080920        -0.264095         1.499450
 H        -0.965246         0.583024         0.203406
 H        -0.502105        -0.911199        -0.250363
 H         2.501838         1.699171         0.868324
 H         2.680622        -0.013661         1.511727
 H         1.715604         1.978465        -1.158807
 H         1.646574         0.498500        -2.440615
 H         5.454290        -1.738470        -1.085964
 H         4.803521        -1.518598         0.596884
 H         3.124623        -1.266464        -2.095322
