19
Iteration:  4182charge 0 multiplicity 1
 C        -0.182656         0.026177         0.110687
 C         1.361125         0.010893        -0.165559
 C         2.489947         0.613158         0.720179
 C         3.187658         0.363781        -0.630707
 C         1.903378         0.740950        -1.443965
 O         4.718320         0.366028        -0.904055
 C         4.716869        -1.103870        -0.473588
 C         3.199193        -1.155493        -0.764015
 O         1.865565        -1.437732        -0.192956
 H        -0.838203         0.134497        -0.840241
 H        -0.446558        -0.918501         0.701484
 H        -0.422268         0.989613         0.646128
 H         2.378837         1.690978         0.928526
 H         2.637926         0.096736         1.733176
 H         1.602452         1.861546        -1.350691
 H         1.645839         0.207888        -2.382559
 H         5.312016        -1.872137        -1.079402
 H         4.996640        -1.128335         0.535255
 H         3.258769        -1.437992        -1.829925
