19
Iteration:  1083charge 0 multiplicity 1
 C        -0.082112        -0.084710         0.135488
 C         1.372287        -0.008315        -0.151450
 C         2.586688         0.553373         0.816445
 C         3.265872         0.432908        -0.632290
 C         1.954183         1.007225        -1.317289
 O         4.758809         0.220922        -0.733782
 C         4.530484        -1.206144        -0.519352
 C         3.108564        -1.040852        -0.971178
 O         1.765195        -1.387133        -0.401488
 H        -0.281961        -0.370062         1.191289
 H        -0.580701         0.860379        -0.229339
 H        -0.495118        -1.004697        -0.451782
 H         2.400544         1.600587         1.183493
 H         2.917752         0.067583         1.817473
 H         1.798394         2.064254        -0.862245
 H         1.602231         0.670981        -2.327914
 H         5.076043        -1.798390        -1.280231
 H         4.796160        -1.501476         0.542493
 H         3.122270        -1.346141        -2.001676
