19
Iteration:  4528charge 0 multiplicity 1
 C        -0.176868        -0.046823         0.197460
 C         1.322704         0.008348        -0.090787
 C         2.521793         0.725538         0.703373
 C         3.192416         0.320447        -0.658870
 C         2.075814         0.860109        -1.443846
 O         4.650803         0.356356        -0.790902
 C         4.644998        -1.198908        -0.487435
 C         3.174939        -1.142572        -0.829451
 O         1.820023        -1.466704        -0.330919
 H        -0.568715        -0.995437        -0.222413
 H        -0.272211        -0.022486         1.284023
 H        -0.720831         0.682622        -0.312887
 H         2.564022         1.783913         0.882757
 H         2.842924         0.192513         1.650900
 H         1.925205         1.901394        -1.195189
 H         1.852410         0.591795        -2.482136
 H         5.351412        -1.622140        -1.183836
 H         4.815061        -1.237669         0.520408
 H         3.174137        -1.400737        -1.931862
