19
Iteration:  2974
 C        -0.094183        -0.034782         0.303401
 C         1.336872         0.032047        -0.177475
 C         2.532652         0.494581         0.668754
 C         3.263460         0.425153        -0.716282
 C         1.857806         0.882455        -1.429022
 O         4.706619         0.274218        -0.819089
 C         4.641483        -1.082069        -0.255911
 C         3.147020        -1.074288        -0.861661
 O         1.856803        -1.424356        -0.445167
 H        -0.203855        -0.750622         1.133296
 H        -0.495799         0.998424         0.439967
 H        -0.882954        -0.278806        -0.493000
 H         2.594892         1.479627         1.092458
 H         2.725127        -0.336220         1.385593
 H         1.625279         1.980906        -1.572293
 H         1.629545         0.480462        -2.454418
 H         5.198872        -1.793580        -0.905234
 H         4.873476        -1.132792         0.863626
 H         3.271315        -1.535729        -1.903772
