19
Iteration:  2711
 C        -0.113076         0.019546         0.067310
 C         1.327784         0.060837        -0.115650
 C         2.519548         0.382489         0.772393
 C         3.212098         0.381186        -0.685570
 C         1.949359         0.827479        -1.400005
 O         4.743220         0.396504        -0.849594
 C         4.605836        -1.072494        -0.396259
 C         3.127964        -1.146751        -0.908796
 O         1.840147        -1.393014        -0.227595
 H        -0.172237        -0.587822         0.948560
 H        -0.644708         1.033908         0.202887
 H        -0.657059        -0.420554        -0.735702
 H         2.537769         1.475762         1.148696
 H         2.860194        -0.308440         1.549497
 H         1.767247         1.855069        -1.462600
 H         1.684608         0.372131        -2.359610
 H         5.306681        -1.526530        -1.036174
 H         4.883941        -1.254871         0.656201
 H         3.115391        -1.691928        -1.930988
