19
Iteration:  4264charge 0 multiplicity 1
 C        -0.042538        -0.075489         0.352932
 C         1.342947        -0.034049        -0.162405
 C         2.502126         0.773949         0.601444
 C         3.299343         0.344430        -0.741979
 C         1.973101         0.808226        -1.433878
 O         4.701493         0.320793        -0.830703
 C         4.592868        -1.062274        -0.219253
 C         3.077261        -1.192541        -0.922433
 O         1.796209        -1.432762        -0.438046
 H        -0.738409        -0.670742        -0.202735
 H         0.012707        -0.620844         1.279694
 H        -0.266824         0.904145         0.727436
 H         2.116621         1.820425         0.564973
 H         2.725123         0.255397         1.521402
 H         1.667423         1.862450        -1.459607
 H         1.759187         0.354381        -2.400243
 H         5.318426        -1.767799        -0.662802
 H         4.750448        -0.990262         0.890177
 H         3.319468        -1.678033        -1.917071
