19
Iteration:  1227
 C        -0.177436        -0.029704         0.216419
 C         1.296026         0.060478        -0.173671
 C         2.483929         0.570377         0.712175
 C         3.206225         0.364497        -0.655359
 C         2.032391         0.990627        -1.326968
 O         4.705368         0.234829        -0.731409
 C         4.643491        -1.226493        -0.492601
 C         3.093523        -1.064152        -1.003416
 O         1.902592        -1.421103        -0.348619
 H        -0.244986        -0.664841         1.081606
 H        -0.394134         0.898255         0.546596
 H        -0.740860        -0.539623        -0.610178
 H         2.517238         1.627196         1.062083
 H         2.896291        -0.049893         1.488213
 H         2.026211         2.079684        -0.986099
 H         1.815380         0.596866        -2.344930
 H         5.434637        -1.767673        -1.085006
 H         4.763183        -1.541421         0.563069
 H         2.830541        -1.221791        -2.012169
