19
Iteration:   827charge 0 multiplicity 1
 C        -0.100397        -0.065666         0.289445
 C         1.375256         0.104473        -0.134968
 C         2.491904         0.602318         0.711399
 C         3.232552         0.352950        -0.686918
 C         1.910572         1.045877        -1.354397
 O         4.657074         0.224714        -0.713464
 C         4.572675        -1.218036        -0.409115
 C         3.166786        -1.114168        -1.057288
 O         1.928422        -1.462716        -0.440407
 H        -0.254381        -0.723823         1.143831
 H        -0.461919         0.898415         0.516378
 H        -0.639516        -0.563227        -0.574195
 H         2.443153         1.755950         1.072271
 H         2.803157        -0.046064         1.627487
 H         1.892977         2.078840        -0.915502
 H         1.672715         0.885023        -2.381274
 H         5.314765        -1.766062        -1.073472
 H         4.424025        -1.490429         0.610946
 H         3.216690        -1.292660        -2.123249
