19
Iteration:  2955charge 0 multiplicity 1
 C        -0.043671         0.021326         0.284771
 C         1.374481        -0.007359        -0.159575
 C         2.574889         0.514676         0.647041
 C         3.198106         0.258820        -0.776743
 C         1.960811         0.782533        -1.336429
 O         4.683214         0.397060        -0.796938
 C         4.602878        -1.009346        -0.233796
 C         3.186698        -1.209155        -0.952791
 O         1.723136        -1.367541        -0.471153
 H        -0.183316        -0.919150         0.937328
 H        -0.212344         0.812296         0.937084
 H        -0.836110        -0.067857        -0.520494
 H         2.378079         1.581657         0.679141
 H         3.067629         0.015212         1.547705
 H         1.756785         1.831146        -1.189617
 H         1.680975         0.632003        -2.294823
 H         5.523043        -1.583575        -0.476124
 H         4.327124        -1.092483         0.773024
 H         3.312512        -1.474592        -2.039185
