19
Iteration:    65
 C        -0.044753         0.066942         0.360769
 C         1.382513        -0.039450        -0.105735
 C         2.447779         0.477763         0.719209
 C         3.254797         0.343221        -0.709824
 C         2.030594         0.923295        -1.362718
 O         4.672505         0.363973        -0.768707
 C         4.495462        -1.165911        -0.411057
 C         3.109762        -1.083914        -1.088343
 O         1.909800        -1.459148        -0.441202
 H        -0.190928         0.055038         1.400764
 H        -0.521466         0.947258        -0.112447
 H        -0.496973        -0.918192         0.082258
 H         2.416216         1.520205         1.093411
 H         2.603175        -0.220993         1.574729
 H         1.739603         1.915368        -1.073959
 H         1.840979         0.813380        -2.401269
 H         5.296252        -1.800882        -0.809024
 H         4.298896        -1.298205         0.674476
 H         3.157125        -1.330125        -2.162232
