19
Iteration:  1117
 C        -0.173569         0.067779         0.221183
 C         1.402063         0.032363        -0.137655
 C         2.510459         0.447698         0.780693
 C         3.239365         0.358071        -0.652861
 C         1.991483         0.886068        -1.299289
 O         4.676637         0.291168        -0.718330
 C         4.572324        -1.187818        -0.489253
 C         3.167322        -1.054083        -1.004150
 O         1.870598        -1.408084        -0.435778
 H        -0.483393        -0.310394         1.198465
 H        -0.596298         1.058270         0.233500
 H        -0.783834        -0.518523        -0.605984
 H         2.420726         1.511171         1.015033
 H         2.851981        -0.260802         1.558423
 H         1.931707         2.051486        -1.171458
 H         1.650311         0.663352        -2.346872
 H         5.205695        -1.755423        -1.208415
 H         4.885209        -1.419710         0.557496
 H         3.220750        -1.326684        -2.044244
