19
Iteration:  2685charge 0 multiplicity 1
 C        -0.089780         0.125375         0.133760
 C         1.336638        -0.094879        -0.143510
 C         2.531998         0.556102         0.690682
 C         3.164444         0.361813        -0.588445
 C         1.929615         0.793099        -1.366505
 O         4.622286         0.348569        -0.822005
 C         4.682724        -1.081118        -0.406020
 C         3.232657        -1.162370        -0.865076
 O         1.823123        -1.492890        -0.346770
 H        -0.596286        -0.708382         0.739909
 H        -0.252884         1.033367         0.688741
 H        -0.711764         0.344869        -0.772134
 H         2.517278         1.632557         0.677815
 H         2.883227         0.214530         1.659537
 H         1.511848         1.864752        -1.124573
 H         1.877446         0.522615        -2.455393
 H         5.504562        -1.512353        -1.145871
 H         4.958525        -1.164036         0.670203
 H         3.287654        -1.479885        -1.951039
