19
Iteration:  1729
 C        -0.115952        -0.013904         0.161211
 C         1.378663        -0.025080        -0.157318
 C         2.525082         0.511780         0.781265
 C         3.247566         0.441159        -0.611438
 C         1.955489         0.847535        -1.345232
 O         4.743071         0.307083        -0.695109
 C         4.591691        -1.194214        -0.602666
 C         3.127960        -1.013619        -0.953536
 O         1.811166        -1.372102        -0.329058
 H        -0.341546        -0.354584         1.138133
 H        -0.575543         0.915599         0.042190
 H        -0.449120        -0.730091        -0.643100
 H         2.596344         1.507373         1.246007
 H         2.816928        -0.294307         1.468363
 H         1.642202         1.829931        -1.122663
 H         1.846394         0.526292        -2.351584
 H         5.045412        -1.811280        -1.331935
 H         4.749498        -1.535706         0.430918
 H         2.848588        -1.226919        -2.008697
