19
Iteration:  3919charge 0 multiplicity 1
 C        -0.046577        -0.077950         0.431086
 C         1.382081        -0.025150        -0.206228
 C         2.470870         0.618794         0.636227
 C         3.229860         0.355132        -0.774703
 C         1.986525         0.857398        -1.527711
 O         4.696977         0.314709        -0.811009
 C         4.525913        -1.073966        -0.196428
 C         3.157680        -1.120212        -0.893426
 O         1.840566        -1.408477        -0.447140
 H        -0.804406        -0.614966        -0.209366
 H         0.074445        -0.557829         1.369545
 H        -0.355579         0.917392         0.390475
 H         2.202026         1.638316         0.813889
 H         2.767075         0.170831         1.554877
 H         1.658837         1.906843        -1.437395
 H         1.881451         0.298474        -2.507908
 H         5.435996        -1.635137        -0.656693
 H         4.449502        -1.175490         0.918592
 H         3.184231        -1.432072        -1.996154
