19
Iteration:  1196
 C        -0.023712        -0.048771         0.233848
 C         1.412543        -0.024942        -0.137751
 C         2.546208         0.528362         0.716243
 C         3.212098         0.382534        -0.703079
 C         1.972592         0.896544        -1.297776
 O         4.792416         0.338710        -0.759698
 C         4.520485        -1.208629        -0.356163
 C         3.026047        -1.069422        -0.975932
 O         1.767707        -1.366055        -0.476463
 H        -0.177983        -1.025890         0.741086
 H        -0.201299         0.848055         0.804136
 H        -0.773924         0.123181        -0.597403
 H         2.491670         1.548782         1.036961
 H         2.968013        -0.094963         1.448489
 H         1.809579         2.064905        -1.216256
 H         1.627153         0.455773        -2.302984
 H         5.343757        -1.783552        -0.846399
 H         4.501986        -1.296066         0.747250
 H         3.023935        -1.444385        -2.050064
