19
Iteration:  4170charge 0 multiplicity 1
 C        -0.117704         0.029145         0.072071
 C         1.300523        -0.012802        -0.179029
 C         2.437497         0.598098         0.685804
 C         3.259199         0.360550        -0.644731
 C         1.849398         0.715593        -1.355682
 O         4.763271         0.315693        -0.907241
 C         4.715840        -1.100998        -0.448498
 C         3.215602        -1.066921        -0.805681
 O         1.819299        -1.365261        -0.142002
 H        -0.669490        -0.345505        -0.912170
 H        -0.348612        -0.843297         0.839948
 H        -0.558691         0.924498         0.614581
 H         2.417290         1.693982         1.046295
 H         2.780407        -0.223032         1.429144
 H         1.487085         1.823447        -1.506037
 H         1.808894         0.270647        -2.371223
 H         5.330453        -1.747364        -1.210992
 H         5.085846        -1.212485         0.543135
 H         2.993752        -1.390523        -1.826257
