19
Iteration:  1431charge 0 multiplicity 1
 C        -0.164432         0.032604         0.147187
 C         1.353897        -0.063943        -0.138836
 C         2.555021         0.466006         0.750443
 C         3.277743         0.378412        -0.683862
 C         1.948205         0.993468        -1.241117
 O         4.708832         0.299337        -0.896395
 C         4.662055        -1.137247        -0.410221
 C         3.141656        -1.076252        -0.910857
 O         1.807337        -1.461780        -0.366200
 H        -0.398740        -0.719465         0.839844
 H        -0.478954         1.144306         0.384353
 H        -0.925453        -0.056667        -0.554641
 H         2.433446         1.516084         1.131502
 H         2.953916        -0.326136         1.438030
 H         1.715718         1.996291        -0.910222
 H         1.652382         0.874334        -2.253413
 H         5.351999        -1.774811        -1.011487
 H         4.768283        -1.248879         0.667370
 H         2.952440        -1.501684        -1.944259
