19
Iteration:  2032
 C        -0.058140         0.022951         0.183500
 C         1.371564        -0.016880        -0.097114
 C         2.510218         0.531339         0.771720
 C         3.263025         0.309815        -0.668329
 C         1.982775         0.907301        -1.266883
 O         4.655439         0.324065        -0.854460
 C         4.626578        -1.101894        -0.364397
 C         3.118176        -1.200656        -0.996674
 O         1.782063        -1.405476        -0.422820
 H        -0.376977        -0.735982         0.884537
 H        -0.282476         1.045993         0.545131
 H        -0.498197        -0.027046        -0.882100
 H         2.417746         1.611275         0.792461
 H         2.886273         0.138325         1.685452
 H         1.653184         1.904760        -1.009977
 H         1.838731         0.730977        -2.362737
 H         5.244207        -1.808676        -0.825125
 H         4.665200        -1.115258         0.726458
 H         3.248797        -1.446201        -2.118857
