19
Iteration:  1404
 C        -0.080279         0.097341         0.182916
 C         1.393590         0.049260        -0.082482
 C         2.500292         0.458916         0.827471
 C         3.270455         0.280969        -0.618460
 C         2.000542         0.811425        -1.290316
 O         4.621979         0.370530        -0.848467
 C         4.654596        -1.093797        -0.477950
 C         3.132266        -1.130048        -0.955829
 O         1.796012        -1.410906        -0.428444
 H        -0.442799        -0.950421         0.594363
 H        -0.422221         0.942683         0.782826
 H        -0.655496         0.290062        -0.806393
 H         2.423229         1.497454         1.099438
 H         2.806936        -0.253292         1.564599
 H         1.842681         1.928080        -1.405403
 H         1.643674         0.279225        -2.265429
 H         5.429016        -1.575646        -1.083033
 H         4.742976        -1.308887         0.625274
 H         3.055788        -1.465677        -1.957199
