19
Iteration:  3364charge 0 multiplicity 1
 C        -0.115921        -0.003502         0.116980
 C         1.379216        -0.050089        -0.151876
 C         2.463228         0.693531         0.666659
 C         3.262230         0.366633        -0.694380
 C         1.962103         0.771327        -1.447621
 O         4.693098         0.317192        -0.862770
 C         4.611441        -1.066039        -0.470199
 C         3.154500        -1.136213        -0.789537
 O         1.880927        -1.448464        -0.149857
 H        -0.676747         0.075500        -0.776854
 H        -0.410873        -0.946818         0.431972
 H        -0.500002         0.687802         0.878826
 H         2.154655         1.735162         0.800365
 H         2.765762         0.257914         1.636355
 H         1.511360         1.706602        -1.100539
 H         1.841780         0.549815        -2.464862
 H         5.285664        -1.774883        -0.962173
 H         4.767256        -1.200786         0.610766
 H         3.051151        -1.474390        -1.865843
