19
Iteration:  4925charge 0 multiplicity 1
 C        -0.026906        -0.035201         0.276847
 C         1.382695        -0.034172        -0.190690
 C         2.563058         0.668705         0.549766
 C         3.212792         0.356688        -0.782341
 C         1.883254         0.822198        -1.441304
 O         4.719405         0.293980        -0.715399
 C         4.548772        -1.100445        -0.228154
 C         3.159722        -1.096775        -0.859807
 O         1.811394        -1.445223        -0.421681
 H        -0.699310        -0.026117        -0.604518
 H        -0.382870        -0.890377         0.894854
 H        -0.289530         0.907807         0.656200
 H         2.321410         1.676768         0.916126
 H         2.976904         0.253608         1.507266
 H         1.744638         1.846069        -1.156700
 H         1.490169         0.498849        -2.428476
 H         5.263854        -1.696969        -0.810997
 H         4.597884        -1.175068         0.875820
 H         3.374480        -1.525403        -1.809645
