19
Iteration:  1010charge 0 multiplicity 1
 C        -0.102445         0.141000         0.322276
 C         1.366071        -0.046370        -0.153581
 C         2.602802         0.440581         0.758441
 C         3.205941         0.321099        -0.645686
 C         1.926628         0.853832        -1.344857
 O         4.675199         0.330775        -0.751377
 C         4.593981        -1.117350        -0.369452
 C         3.161572        -1.113329        -0.991319
 O         1.804075        -1.425259        -0.593487
 H        -0.309144        -0.789248         0.822913
 H        -0.115894         1.006100         0.907703
 H        -0.926891         0.331421        -0.459080
 H         2.595975         1.416842         1.183688
 H         2.980181        -0.112239         1.575113
 H         1.637661         1.911019        -1.095105
 H         1.814645         0.455727        -2.340081
 H         5.458726        -1.587087        -0.840257
 H         4.423573        -1.235340         0.703601
 H         3.285337        -1.219084        -2.117269
