19
Iteration:    67
 C        -0.060320         0.075140         0.358390
 C         1.365146        -0.031326        -0.122071
 C         2.460150         0.460970         0.729238
 C         3.260121         0.356242        -0.703672
 C         2.024171         0.925421        -1.345829
 O         4.663381         0.357424        -0.777323
 C         4.513689        -1.166462        -0.409874
 C         3.125375        -1.094925        -1.095722
 O         1.900484        -1.463930        -0.435282
 H        -0.250220         0.106345         1.471815
 H        -0.522267         0.872437        -0.102920
 H        -0.513518        -0.828170        -0.017695
 H         2.407253         1.491210         1.035984
 H         2.685220        -0.191403         1.559256
 H         1.788107         1.899908        -1.054794
 H         1.811515         0.774096        -2.411047
 H         5.388475        -1.777461        -0.737443
 H         4.360826        -1.233291         0.640019
 H         3.135077        -1.288049        -2.170888
