19
Iteration:  1982
 C        -0.037120        -0.043262         0.343116
 C         1.362737         0.032304        -0.157598
 C         2.502199         0.536331         0.635184
 C         3.244543         0.415769        -0.739923
 C         1.981328         0.877415        -1.431766
 O         4.737252         0.282861        -0.662611
 C         4.476876        -1.138600        -0.364718
 C         3.125884        -1.141495        -1.039369
 O         1.846682        -1.389946        -0.418457
 H        -0.054113        -1.057095         0.925073
 H         0.024886         0.733899         1.060038
 H        -0.875784         0.102664        -0.299258
 H         2.259299         1.602982         0.859173
 H         2.657819        -0.041955         1.599535
 H         1.854000         1.972294        -1.270583
 H         1.743287         0.739235        -2.519498
 H         5.412076        -1.624511        -0.836927
 H         4.201918        -1.435043         0.673016
 H         3.128461        -1.317363        -2.093682
