19
Iteration:  4174
 C        -0.137459         0.035063         0.080238
 C         1.327441        -0.008484        -0.187094
 C         2.451803         0.606569         0.706059
 C         3.229509         0.353659        -0.622226
 C         1.836913         0.732825        -1.370279
 O         4.762053         0.337293        -0.910645
 C         4.703062        -1.113278        -0.467861
 C         3.261991        -1.106966        -0.789861
 O         1.825897        -1.382280        -0.151253
 H        -0.743314        -0.156560        -0.719892
 H        -0.337214        -0.808756         0.650941
 H        -0.557092         0.877215         0.545070
 H         2.437082         1.594843         0.924327
 H         2.660446        -0.141806         1.376945
 H         1.542373         1.746152        -1.501607
 H         1.782104         0.235957        -2.348633
 H         5.189088        -1.772915        -1.102007
 H         5.125013        -1.103988         0.546627
 H         2.989295        -1.315153        -1.819069
