19
Iteration:  1899charge 0 multiplicity 1
 C        -0.063823         0.042665         0.087130
 C         1.395288        -0.118799        -0.053552
 C         2.548931         0.520881         0.684565
 C         3.217705         0.319338        -0.630836
 C         1.997791         1.007190        -1.226681
 O         4.661980         0.304644        -0.825180
 C         4.587294        -1.103771        -0.479690
 C         3.070697        -1.113634        -0.928810
 O         1.817390        -1.448345        -0.359544
 H        -0.316076        -0.020237         1.130169
 H        -0.497045         1.081935        -0.386487
 H        -0.417067        -0.857964        -0.480084
 H         2.477313         1.558749         0.950385
 H         2.694555         0.012460         1.667935
 H         1.704881         2.005546        -0.798274
 H         1.887052         0.838641        -2.297543
 H         5.287738        -1.666146        -1.060925
 H         4.794239        -1.448584         0.575874
 H         3.235014        -1.431672        -2.027822
