19
Iteration:  3075charge 0 multiplicity 1
 C        -0.069085         0.024139         0.248394
 C         1.361422        -0.041065        -0.129439
 C         2.497644         0.620386         0.732986
 C         3.224674         0.365166        -0.663275
 C         2.004099         0.853232        -1.354659
 O         4.568972         0.288014        -0.847677
 C         4.607980        -1.099289        -0.320475
 C         3.158782        -1.127657        -0.923036
 O         1.898739        -1.482613        -0.472129
 H        -0.414243        -0.004094         1.332294
 H        -0.395487         1.016449         0.031113
 H        -0.654525        -0.691991        -0.318416
 H         2.294929         1.677808         0.809854
 H         2.704317        -0.124996         1.521736
 H         1.712568         1.882821        -1.130727
 H         1.825531         0.612626        -2.375896
 H         5.549739        -1.537612        -0.788377
 H         4.742384        -1.138206         0.740752
 H         3.293503        -1.301213        -2.053750
