19
Iteration:  2242charge 0 multiplicity 1
 C        -0.051530        -0.029432         0.141914
 C         1.352862         0.042571        -0.149946
 C         2.547786         0.588490         0.724409
 C         3.310509         0.359414        -0.614028
 C         1.976966         0.830426        -1.307390
 O         4.711147         0.292162        -0.757356
 C         4.586424        -1.178431        -0.478967
 C         3.102426        -1.100677        -0.943378
 O         1.773993        -1.368716        -0.348404
 H        -0.300561        -1.137639         0.451267
 H        -0.521353         0.736655         0.723819
 H        -0.537505         0.158883        -0.791720
 H         2.448468         1.689222         0.743372
 H         2.680844         0.112668         1.714507
 H         1.467047         1.808565        -1.002154
 H         1.738594         0.575634        -2.356004
 H         5.272451        -1.865675        -1.065982
 H         4.787316        -1.198543         0.593556
 H         2.870997        -1.378264        -2.043380
