19
Iteration:  4377
 C        -0.186598        -0.028882         0.231905
 C         1.306644         0.031420        -0.194728
 C         2.602691         0.646266         0.655533
 C         3.278771         0.407395        -0.738938
 C         1.866380         0.796963        -1.477553
 O         4.701646         0.277464        -0.814306
 C         4.601262        -1.112985        -0.315596
 C         3.168385        -1.095159        -0.889467
 O         1.876097        -1.390446        -0.274390
 H        -0.694368        -0.601463        -0.536523
 H        -0.151377        -0.725834         1.067405
 H        -0.645439         0.799183         0.681661
 H         2.679798         1.618387         1.095487
 H         2.819107        -0.172562         1.369938
 H         1.493029         1.790122        -1.431908
 H         1.846267         0.353455        -2.439916
 H         5.415449        -1.716571        -0.788268
 H         4.735796        -1.297446         0.772684
 H         3.177233        -1.548295        -1.885172
