19
Iteration:  1161
 C        -0.097914         0.128940         0.328339
 C         1.294290        -0.020214        -0.181494
 C         2.487783         0.436036         0.694745
 C         3.236557         0.304240        -0.724223
 C         1.931835         0.937753        -1.305937
 O         4.732514         0.336583        -0.770768
 C         4.670604        -1.130739        -0.317975
 C         3.149851        -1.160803        -0.965985
 O         1.810459        -1.426263        -0.556960
 H        -0.414902        -0.605546         1.024622
 H        -0.059881         0.902029         1.008235
 H        -0.930706         0.122084        -0.448250
 H         2.401103         1.470003         1.090498
 H         2.743248        -0.295665         1.467693
 H         1.738480         2.067078        -1.079192
 H         1.630298         0.711023        -2.370121
 H         5.464123        -1.711035        -0.859868
 H         4.844032        -1.252091         0.777074
 H         3.388926        -1.493702        -1.965296
