19
Iteration:  3781charge 0 multiplicity 1
 C        -0.029816        -0.084244         0.322383
 C         1.389278         0.016886        -0.159951
 C         2.524826         0.663063         0.628950
 C         3.233499         0.424438        -0.765509
 C         1.803435         0.743767        -1.506113
 O         4.722825         0.219660        -0.801942
 C         4.547299        -1.097490        -0.247409
 C         3.197553        -1.122429        -0.912303
 O         1.860243        -1.306641        -0.389862
 H        -0.882076        -0.089943        -0.397998
 H        -0.367455        -0.855018         1.066972
 H        -0.237335         0.832941         0.887676
 H         2.423974         1.754713         0.831111
 H         2.990739         0.123547         1.488542
 H         1.442980         1.768010        -1.451267
 H         1.669017         0.142211        -2.394117
 H         5.312233        -1.848647        -0.463364
 H         4.480745        -1.029414         0.806311
 H         3.418073        -1.508286        -1.891036
