19
Iteration:  4908
 C        -0.061025        -0.037076         0.321505
 C         1.406488        -0.034173        -0.126807
 C         2.514780         0.641302         0.590060
 C         3.242033         0.436815        -0.715567
 C         1.978684         0.824968        -1.524460
 O         4.688472         0.287524        -0.749008
 C         4.537185        -1.115769        -0.211490
 C         3.113099        -1.129951        -0.929582
 O         1.819458        -1.408981        -0.438057
 H        -0.802982        -0.033839        -0.516115
 H        -0.098372        -1.014536         0.773381
 H        -0.280201         0.636579         1.188614
 H         2.338629         1.703660         0.577690
 H         2.918854         0.235020         1.518089
 H         1.526183         1.830522        -1.654855
 H         2.037427         0.265648        -2.440680
 H         5.348608        -1.814337        -0.421780
 H         4.605396        -1.096909         0.895901
 H         3.073480        -1.376425        -2.032325
