19
Iteration:  1254charge 0 multiplicity 1
 C        -0.104565         0.090539         0.132468
 C         1.393932        -0.040609        -0.156540
 C         2.535510         0.501839         0.771906
 C         3.201658         0.356520        -0.592327
 C         1.957023         0.852208        -1.276697
 O         4.729573         0.295421        -0.745864
 C         4.662969        -1.145164        -0.513436
 C         3.088178        -1.088717        -0.945767
 O         1.786369        -1.385834        -0.417315
 H        -0.234423        -0.134226         1.257317
 H        -0.588603         1.152639        -0.000745
 H        -0.461425        -0.751956        -0.393050
 H         2.381343         1.523321         1.071939
 H         2.803687        -0.180888         1.618378
 H         1.697117         1.879308        -1.063157
 H         1.759353         0.438584        -2.285897
 H         5.245923        -1.606844        -1.299314
 H         5.020981        -1.534105         0.459880
 H         2.874665        -1.234214        -2.046610
