19
Iteration:   236
 C        -0.124103         0.103450         0.297337
 C         1.384832        -0.065875        -0.071962
 C         2.565569         0.405583         0.709864
 C         3.258719         0.363888        -0.689694
 C         1.940143         0.904099        -1.269224
 O         4.685987         0.337103        -0.847409
 C         4.559472        -1.187102        -0.341929
 C         3.153809        -1.061030        -0.965964
 O         1.836288        -1.421815        -0.529924
 H        -0.430929        -0.352628         1.230404
 H        -0.555695         1.178695         0.347379
 H        -0.596825        -0.285124        -0.675157
 H         2.362739         1.502852         0.959019
 H         2.708795        -0.357449         1.514420
 H         1.772715         2.063188        -1.028303
 H         1.772098         0.781835        -2.387749
 H         5.281419        -1.753737        -0.912648
 H         4.758067        -1.312538         0.762682
 H         3.281148        -1.246078        -2.056963
