19
Iteration:  1699charge 0 multiplicity 1
 C        -0.122917         0.012953         0.241456
 C         1.364778        -0.000462        -0.148164
 C         2.489786         0.523206         0.773282
 C         3.224829         0.335356        -0.683401
 C         1.965341         0.902578        -1.228150
 O         4.712817         0.316258        -0.755808
 C         4.650312        -1.144973        -0.453927
 C         3.131846        -1.097549        -1.023676
 O         1.815301        -1.401375        -0.487124
 H        -0.278002        -0.171121         1.410472
 H        -0.599263         0.884981        -0.126777
 H        -0.522297        -0.896271        -0.331044
 H         2.724025         1.624943         0.817843
 H         2.788593         0.125804         1.768778
 H         1.885088         1.863784        -0.792956
 H         1.703090         0.708822        -2.262107
 H         5.154553        -1.909245        -1.068972
 H         4.610962        -1.360608         0.588397
 H         3.204747        -1.457054        -2.107847
