19
Iteration:  1289charge 0 multiplicity 1
 C        -0.110956         0.118481         0.237775
 C         1.269988        -0.007607        -0.122747
 C         2.490672         0.371130         0.723090
 C         3.270214         0.347641        -0.698554
 C         2.013483         0.910841        -1.264517
 O         4.727663         0.341362        -0.801457
 C         4.603604        -1.090634        -0.389816
 C         3.100510        -1.111805        -1.041886
 O         1.853800        -1.448753        -0.410916
 H        -0.219266        -0.048579         1.311991
 H        -0.693765         1.045574        -0.266828
 H        -0.757160        -0.719171        -0.203599
 H         2.498176         1.478618         1.039766
 H         2.996426        -0.223782         1.560370
 H         1.881655         1.939064        -0.951582
 H         1.791573         0.752496        -2.310491
 H         5.303098        -1.740714        -0.910444
 H         4.544671        -1.323147         0.670657
 H         3.271280        -1.475445        -2.123106
