19
Iteration:  3663
 C        -0.078657        -0.090562         0.066935
 C         1.328587         0.057194        -0.073340
 C         2.532560         0.627264         0.809229
 C         3.235882         0.342511        -0.701610
 C         2.059314         0.824869        -1.438261
 O         4.651553         0.402604        -0.869802
 C         4.562792        -1.133296        -0.470621
 C         3.079627        -1.179630        -0.905411
 O         1.833614        -1.410461        -0.181527
 H        -0.326696        -0.995743        -0.356944
 H        -0.367794        -0.150499         1.172903
 H        -0.574422         0.799304        -0.334522
 H         2.471054         1.739004         0.995943
 H         2.950861         0.171270         1.735555
 H         1.747575         1.881930        -1.238513
 H         1.960431         0.331470        -2.408227
 H         5.134056        -1.854275        -1.072561
 H         5.032199        -1.134270         0.614507
 H         3.133808        -1.614404        -1.983740
