19
Iteration:  3091charge 0 multiplicity 1
 C         0.014552        -0.012064         0.299120
 C         1.392199        -0.037613        -0.224977
 C         2.545180         0.533144         0.628302
 C         3.192835         0.321829        -0.727338
 C         1.918273         0.870199        -1.368108
 O         4.628800         0.366947        -0.775205
 C         4.566760        -1.077218        -0.235219
 C         3.171902        -1.144627        -0.905375
 O         1.806914        -1.425262        -0.484875
 H         0.061058        -0.587315         1.218971
 H        -0.304040         1.107343         0.425462
 H        -0.757233        -0.518147        -0.325148
 H         2.511221         1.655039         0.917959
 H         2.942972         0.089653         1.542482
 H         1.636268         1.940921        -1.260839
 H         1.670712         0.611898        -2.474988
 H         5.241509        -1.739419        -0.728312
 H         4.664160        -1.083660         0.883394
 H         3.307133        -1.564707        -1.899734
