19
Iteration:  2985charge 0 multiplicity 1
 C        -0.113791        -0.056580         0.226367
 C         1.317544        -0.003740        -0.215330
 C         2.471184         0.508146         0.701439
 C         3.197604         0.439843        -0.678894
 C         1.907993         0.914207        -1.412246
 O         4.743305         0.239548        -0.825780
 C         4.625302        -1.140695        -0.356734
 C         3.171224        -1.009771        -0.870234
 O         1.881268        -1.405738        -0.337786
 H        -0.168094        -0.315547         1.274247
 H        -0.363224         1.017356         0.371083
 H        -0.739174        -0.745072        -0.397231
 H         2.251337         1.512274         0.979214
 H         2.892068        -0.097155         1.532922
 H         1.540916         1.978074        -1.456099
 H         1.857204         0.372890        -2.390938
 H         5.251239        -1.796222        -1.016816
 H         4.842139        -1.449605         0.711658
 H         3.288356        -1.209595        -1.982413
