19
Iteration:  2691
 C        -0.102957         0.086622         0.130216
 C         1.371346        -0.069629        -0.142810
 C         2.531452         0.547716         0.705787
 C         3.245277         0.351498        -0.648727
 C         1.935931         0.767651        -1.362313
 O         4.598609         0.364135        -0.799501
 C         4.694170        -1.042037        -0.442319
 C         3.189719        -1.174645        -0.848035
 O         1.797832        -1.466473        -0.323433
 H        -0.591508        -0.648764         0.696895
 H        -0.169783         1.118548         0.570994
 H        -0.540577         0.213178        -0.880571
 H         2.507924         1.652208         0.962113
 H         2.882046        -0.101098         1.561317
 H         1.519738         1.721890        -1.228464
 H         1.848196         0.562287        -2.419887
 H         5.363023        -1.647361        -0.959812
 H         4.939537        -1.102272         0.616896
 H         3.085001        -1.319421        -1.908179
