19
Iteration:  4172charge 0 multiplicity 1
 C        -0.125539         0.035191         0.074473
 C         1.312626        -0.011564        -0.185188
 C         2.443086         0.605405         0.697556
 C         3.245201         0.354348        -0.631698
 C         1.839719         0.722258        -1.358580
 O         4.764315         0.326639        -0.909774
 C         4.708929        -1.107616        -0.454691
 C         3.244470        -1.086539        -0.798999
 O         1.821480        -1.372531        -0.145502
 H        -0.704879        -0.256976        -0.804946
 H        -0.343267        -0.829352         0.739766
 H        -0.562161         0.889144         0.581850
 H         2.431567         1.607734         0.969136
 H         2.716718        -0.189376         1.375173
 H         1.507023         1.802456        -1.518562
 H         1.802319         0.253458        -2.361752
 H         5.253148        -1.762390        -1.159810
 H         5.100901        -1.149524         0.508738
 H         2.977443        -1.339930        -1.809264
