19
Iteration:  1344
 C        -0.058194        -0.086511         0.326030
 C         1.349836         0.035898        -0.175045
 C         2.546418         0.589470         0.690297
 C         3.289703         0.344425        -0.624936
 C         1.938326         0.905041        -1.396746
 O         4.747266         0.272154        -0.711998
 C         4.536864        -1.154278        -0.403956
 C         3.089516        -1.080997        -1.039894
 O         1.802270        -1.353973        -0.460927
 H        -0.066714        -0.926106         1.012897
 H        -0.460093         0.929112         0.833655
 H        -0.716882        -0.433581        -0.574239
 H         2.535559         1.702447         1.010632
 H         2.823646         0.026120         1.672209
 H         1.698967         1.934458        -1.211547
 H         1.808247         0.444635        -2.345991
 H         5.328334        -1.776316        -0.846934
 H         4.284488        -1.451267         0.610035
 H         3.233087        -1.349268        -2.164659
