19
Iteration:  1125charge 0 multiplicity 1
 C        -0.122065         0.054794         0.211121
 C         1.382065        -0.001796        -0.128480
 C         2.554170         0.453490         0.784249
 C         3.247659         0.346030        -0.625478
 C         2.023310         0.926954        -1.354563
 O         4.657366         0.360890        -0.715173
 C         4.589044        -1.150198        -0.449124
 C         3.057025        -1.155489        -1.003794
 O         1.840085        -1.427143        -0.460576
 H        -0.108805        -0.470275         1.149259
 H        -0.296250         1.164190         0.163933
 H        -0.845496        -0.241445        -0.472523
 H         2.503105         1.449974         1.315224
 H         2.864647        -0.358079         1.551737
 H         1.764826         1.956556        -1.330359
 H         1.927397         0.577356        -2.378962
 H         5.189650        -1.684415        -1.173335
 H         4.809703        -1.328950         0.605982
 H         3.025006        -1.267282        -2.083372
