19
Iteration:   250
 C        -0.169915         0.020475         0.227679
 C         1.330209         0.026740        -0.067145
 C         2.574796         0.481762         0.832933
 C         3.244302         0.349961        -0.654887
 C         2.005048         0.926920        -1.322129
 O         4.708403         0.290250        -0.750252
 C         4.624918        -1.115833        -0.502649
 C         3.119988        -1.157779        -1.017669
 O         1.803834        -1.368245        -0.496859
 H        -0.424561        -0.311307         1.301790
 H        -0.379901         1.067150         0.062991
 H        -0.806969        -0.641033        -0.417627
 H         2.578021         1.475733         1.277769
 H         3.103744        -0.180513         1.486354
 H         1.771113         1.939117        -1.194333
 H         1.663130         0.404862        -2.249933
 H         5.383312        -1.764823        -1.018003
 H         4.628239        -1.242826         0.568371
 H         3.105140        -1.458959        -2.078249
