19
Iteration:  2284
 C        -0.041084         0.038988         0.242524
 C         1.405392        -0.029073        -0.178729
 C         2.504707         0.484183         0.661393
 C         3.239869         0.349026        -0.674205
 C         1.961040         0.954327        -1.314677
 O         4.695204         0.323176        -0.802959
 C         4.576469        -1.128825        -0.302533
 C         3.120609        -1.164959        -0.905777
 O         1.787433        -1.428889        -0.483925
 H        -0.068375        -0.348870         1.333378
 H        -0.373899         1.033978         0.209003
 H        -0.770302        -0.505454        -0.362478
 H         2.383658         1.583531         0.935755
 H         2.726417        -0.287515         1.479059
 H         1.685902         1.988726        -1.068490
 H         1.911714         0.781541        -2.390730
 H         5.415338        -1.614521        -0.913775
 H         4.511448        -1.224489         0.778816
 H         3.220510        -1.338980        -2.009752
