19
Iteration:  2679charge 0 multiplicity 1
 C        -0.126227         0.162115         0.153113
 C         1.335177        -0.116313        -0.162791
 C         2.500701         0.591589         0.704570
 C         3.135970         0.307578        -0.614624
 C         1.923252         0.839893        -1.355612
 O         4.669752         0.348659        -0.836922
 C         4.704528        -1.106775        -0.374089
 C         3.205180        -1.125775        -0.894241
 O         1.868966        -1.520644        -0.369678
 H        -0.480367        -0.696016         0.673997
 H        -0.256165         0.960972         0.966153
 H        -0.812598         0.286454        -0.658906
 H         2.251312         1.705832         0.625999
 H         2.873752         0.388227         1.719401
 H         1.715699         1.825224        -1.178258
 H         1.799390         0.425998        -2.332542
 H         5.393960        -1.460420        -1.043029
 H         4.929301        -1.300175         0.670332
 H         3.391555        -1.595865        -1.872714
