19
Iteration:   360
 C        -0.161571         0.108962         0.316079
 C         1.305459        -0.018475        -0.184736
 C         2.493087         0.383826         0.718493
 C         3.299642         0.293151        -0.723629
 C         2.040141         0.917197        -1.256386
 O         4.753856         0.360131        -0.861005
 C         4.597340        -1.052422        -0.282818
 C         3.155555        -1.140433        -0.996944
 O         1.744639        -1.418857        -0.524159
 H        -0.301595        -0.937422         0.870526
 H        -0.126455         0.893737         1.044389
 H        -0.986800         0.005413        -0.384204
 H         2.583880         1.404828         1.050980
 H         2.858915        -0.276548         1.492043
 H         1.990959         1.984127        -0.938271
 H         1.656530         0.802900        -2.373517
 H         5.370790        -1.745604        -0.746252
 H         4.588977        -1.077244         0.801293
 H         3.200534        -1.590754        -2.005717
