19
Iteration:  1178charge 0 multiplicity 1
 C        -0.199976         0.058583         0.346824
 C         1.348756         0.057426        -0.129704
 C         2.607629         0.459904         0.687294
 C         3.284831         0.353234        -0.664547
 C         1.872310         0.900228        -1.343139
 O         4.683405         0.230229        -0.762333
 C         4.610229        -1.103295        -0.328131
 C         3.247111        -1.110489        -1.003428
 O         1.807269        -1.402210        -0.573228
 H        -0.417493        -0.984362         0.749612
 H        -0.383189         1.026558         1.040278
 H        -0.715062         0.137945        -0.586870
 H         2.589867         1.534432         0.979765
 H         2.886161        -0.066893         1.650447
 H         1.648287         1.883801        -1.087607
 H         1.737261         0.528152        -2.332030
 H         5.341337        -1.780095        -0.739455
 H         4.580255        -1.166786         0.763862
 H         3.201079        -1.326622        -2.117517
