19
Iteration:  3760
 C        -0.069351         0.007651         0.436185
 C         1.303388        -0.031872        -0.255767
 C         2.513252         0.630286         0.480827
 C         3.233669         0.409085        -0.800900
 C         1.876390         0.840310        -1.536696
 O         4.827225         0.295401        -0.767703
 C         4.542262        -1.095872        -0.206711
 C         3.113343        -1.093164        -0.906836
 O         1.865818        -1.473294        -0.337303
 H        -0.977175        -0.207501        -0.165137
 H        -0.114932        -0.973015         1.058001
 H        -0.285860         0.722524         1.254745
 H         2.339975         1.722466         0.665163
 H         2.707121         0.011674         1.397898
 H         1.753709         1.898000        -1.307700
 H         1.683539         0.411078        -2.491476
 H         5.257426        -1.873415        -0.505604
 H         4.603893        -1.040446         0.891429
 H         3.362135        -1.397097        -1.905497
