19
Iteration:  3382charge 0 multiplicity 1
 C        -0.148944        -0.088912         0.197447
 C         1.290618        -0.007565        -0.168301
 C         2.505164         0.602610         0.685420
 C         3.173710         0.429779        -0.689478
 C         1.970768         0.844163        -1.529878
 O         4.684735         0.312462        -0.861521
 C         4.657472        -1.160993        -0.339721
 C         3.111627        -1.043267        -0.867964
 O         1.926429        -1.393291        -0.172014
 H        -0.756925        -0.085711        -0.720327
 H        -0.418641        -0.965618         0.936509
 H        -0.281220         0.899302         0.698950
 H         2.441861         1.687841         0.956439
 H         2.830424        -0.168808         1.377541
 H         1.835250         1.838168        -1.928595
 H         1.885751         0.029842        -2.344223
 H         5.308009        -1.738566        -0.970512
 H         5.038544        -1.347649         0.727201
 H         3.180918        -1.335552        -1.898217
