19
Iteration:  3615
 C        -0.031220         0.026176         0.345202
 C         1.424135        -0.076559        -0.120994
 C         2.401065         0.661013         0.583393
 C         3.258778         0.385918        -0.763374
 C         1.864950         0.814595        -1.449690
 O         4.709887         0.337966        -0.763855
 C         4.553519        -1.129492        -0.301403
 C         3.176704        -1.136880        -0.934032
 O         1.890166        -1.468996        -0.396788
 H        -0.793437        -0.429200        -0.395265
 H        -0.164701        -0.456722         1.281560
 H        -0.205786         1.087911         0.511007
 H         2.283552         1.747890         0.688448
 H         2.644507         0.322543         1.600349
 H         1.730756         1.874766        -1.277841
 H         1.591030         0.433773        -2.448972
 H         5.391571        -1.800711        -0.734231
 H         4.503283        -1.297111         0.759115
 H         3.216700        -1.503131        -1.984703
