19
Iteration:  4282
 C        -0.000295        -0.028794         0.309418
 C         1.382313         0.003614        -0.243623
 C         2.489508         0.610355         0.605495
 C         3.189148         0.339106        -0.742408
 C         1.936263         0.838495        -1.482145
 O         4.610856         0.318324        -0.788853
 C         4.561367        -1.102185        -0.328203
 C         3.159698        -1.137677        -0.836491
 O         1.879959        -1.423240        -0.294964
 H        -0.472111        -0.827259        -0.288684
 H        -0.012610        -0.332759         1.377765
 H        -0.532089         0.948987         0.208424
 H         2.475880         1.670833         0.641812
 H         2.855006         0.143092         1.527828
 H         1.779180         1.887690        -1.260352
 H         1.805607         0.572550        -2.578571
 H         5.337438        -1.648552        -0.777440
 H         4.624130        -1.211512         0.758323
 H         3.236063        -1.377120        -1.910909
