19
Iteration:  4868charge 0 multiplicity 1
 C        -0.096538        -0.019257         0.227294
 C         1.283818         0.015989        -0.215042
 C         2.537426         0.600242         0.627803
 C         3.180370         0.324129        -0.704439
 C         1.936922         0.905419        -1.486915
 O         4.709827         0.296144        -0.776873
 C         4.687616        -1.112030        -0.293674
 C         3.164546        -1.137766        -0.853250
 O         1.814968        -1.427097        -0.306557
 H        -0.643344         0.220199        -0.657866
 H        -0.375827        -0.996358         0.659760
 H        -0.200242         0.729699         1.113807
 H         2.245765         1.681593         0.565514
 H         3.002687         0.078561         1.456859
 H         1.486558         1.948270        -1.401188
 H         1.722488         0.607921        -2.542593
 H         5.423344        -1.809916        -0.813252
 H         4.814651        -1.125066         0.803280
 H         3.365133        -1.736896        -1.727398
