19
Iteration:  3609
 C         0.015567         0.037960         0.351897
 C         1.379118        -0.126861        -0.119143
 C         2.463886         0.637439         0.565633
 C         3.245009         0.397103        -0.714041
 C         1.896032         0.789021        -1.453685
 O         4.676535         0.330036        -0.756602
 C         4.519749        -1.078323        -0.287368
 C         3.182909        -1.152779        -1.007565
 O         1.862495        -1.443868        -0.385774
 H        -0.684260        -0.237753        -0.381839
 H        -0.186662        -0.559010         1.306412
 H        -0.209305         1.091028         0.580941
 H         2.134401         1.691674         0.738787
 H         2.827209         0.280950         1.546346
 H         1.730483         1.887713        -1.472267
 H         1.759761         0.389500        -2.474424
 H         5.233275        -1.773688        -0.677403
 H         4.502994        -1.038363         0.849163
 H         3.410714        -1.533968        -2.027696
