19
Iteration:  4802
 C        -0.156239        -0.015179         0.161799
 C         1.346735        -0.066122        -0.196693
 C         2.495867         0.562324         0.635110
 C         3.243792         0.357730        -0.660616
 C         2.039424         0.886241        -1.354769
 O         4.698961         0.368623        -0.856803
 C         4.671314        -1.129963        -0.378067
 C         3.128738        -1.158787        -0.826824
 O         1.810535        -1.430904        -0.253721
 H        -0.591948        -0.805181        -0.412374
 H        -0.476769        -0.225770         1.188818
 H        -0.683395         0.988029        -0.065873
 H         2.271737         1.696493         0.703017
 H         2.953210         0.158918         1.545652
 H         1.681105         1.946264        -1.193012
 H         1.937960         0.775657        -2.445132
 H         5.191286        -1.702802        -1.171613
 H         4.817322        -1.223905         0.678825
 H         3.084229        -1.425758        -1.872707
