19
Iteration:  1396
 C        -0.115654         0.102583         0.153339
 C         1.397275        -0.020950        -0.080913
 C         2.562868         0.500725         0.797837
 C         3.245104         0.298051        -0.660630
 C         2.021562         0.829624        -1.318424
 O         4.653455         0.403067        -0.792345
 C         4.666894        -1.110861        -0.499472
 C         3.092323        -1.123202        -0.967375
 O         1.746866        -1.431934        -0.402502
 H        -0.341932        -0.804578         0.683581
 H        -0.200449         0.720306         1.080034
 H        -0.608636         0.197559        -0.721927
 H         2.366412         1.461288         1.164659
 H         2.709185        -0.152299         1.646906
 H         1.703669         1.871903        -1.343182
 H         1.831208         0.314824        -2.293758
 H         5.360846        -1.761686        -1.029651
 H         4.714921        -1.252405         0.606905
 H         3.182044        -1.416716        -2.028820
