19
Iteration:  1249
 C        -0.171280         0.096565         0.171768
 C         1.427029        -0.021809        -0.131863
 C         2.516920         0.509853         0.759166
 C         3.235114         0.312466        -0.605595
 C         1.953869         0.887949        -1.303940
 O         4.775951         0.321082        -0.745360
 C         4.620687        -1.170967        -0.528530
 C         3.099245        -1.103880        -0.961261
 O         1.795057        -1.385353        -0.404215
 H        -0.307492        -0.300110         1.153306
 H        -0.614445         1.010038         0.019010
 H        -0.564421        -0.781555        -0.440943
 H         2.334917         1.566574         1.064776
 H         2.579121        -0.079624         1.663202
 H         1.683927         1.926390        -0.947756
 H         1.860574         0.371730        -2.274812
 H         5.274283        -1.603970        -1.330477
 H         5.023561        -1.494522         0.445217
 H         2.987477        -1.282392        -2.012045
