19
Iteration:  4824charge 0 multiplicity 1
 C        -0.110953         0.069135         0.042293
 C         1.378664        -0.042830        -0.130953
 C         2.474368         0.542062         0.797920
 C         3.203298         0.340806        -0.661933
 C         1.874856         0.857283        -1.425645
 O         4.686814         0.299817        -0.876408
 C         4.633555        -1.105895        -0.404284
 C         3.189678        -1.123281        -0.857744
 O         1.919106        -1.446485        -0.213332
 H        -0.675088        -0.305474        -0.774214
 H        -0.534565        -0.419310         0.941090
 H        -0.329428         1.174678         0.318334
 H         2.414560         1.645134         1.083563
 H         2.633192        -0.215828         1.573756
 H         1.689985         1.969627        -1.538823
 H         1.616255         0.465216        -2.430522
 H         5.406490        -1.585310        -1.061707
 H         4.706853        -1.065586         0.670748
 H         3.229314        -1.345655        -1.914788
