19
Iteration:   623charge 0 multiplicity 1
 C        -0.168278         0.135276         0.189121
 C         1.290252        -0.089918        -0.162549
 C         2.546135         0.434298         0.794133
 C         3.276118         0.351253        -0.614690
 C         1.944260         0.976244        -1.278909
 O         4.733828         0.328213        -0.921067
 C         4.639302        -1.138456        -0.466876
 C         3.169635        -1.104597        -0.819891
 O         1.819866        -1.483172        -0.455928
 H        -0.452072        -0.647066         1.069798
 H        -0.440947         1.216579         0.592282
 H        -0.923263        -0.105619        -0.556314
 H         2.342992         1.456362         1.055395
 H         2.685730        -0.230109         1.650712
 H         1.549818         2.030478        -1.017465
 H         1.805364         0.690719        -2.329164
 H         5.327251        -1.820417        -1.028957
 H         5.138057        -1.082731         0.581415
 H         3.310662        -1.378671        -1.935250
