19
Iteration:   712charge 0 multiplicity 1
 C        -0.067766        -0.051985         0.290838
 C         1.356168         0.054250        -0.141446
 C         2.496880         0.626830         0.756215
 C         3.279140         0.334866        -0.648095
 C         1.937615         0.882162        -1.299172
 O         4.703593         0.281852        -0.748954
 C         4.606007        -1.187202        -0.422146
 C         3.126597        -1.104311        -0.986441
 O         1.801398        -1.374420        -0.555003
 H         0.020135        -0.606895         1.319799
 H        -0.495232         1.022314         0.470858
 H        -0.558044        -0.798168        -0.347535
 H         2.446803         1.658163         1.033598
 H         2.739259        -0.110021         1.500190
 H         1.848971         1.952267        -1.167336
 H         1.653040         0.586800        -2.374578
 H         5.233185        -1.765671        -1.087007
 H         4.667068        -1.312332         0.735086
 H         3.117996        -1.374188        -2.080552
