19
Iteration:  4229
 C        -0.088086        -0.007670         0.312332
 C         1.387589         0.006595        -0.228140
 C         2.498555         0.589235         0.607710
 C         3.271464         0.400929        -0.857942
 C         1.804668         0.757443        -1.467240
 O         4.728751         0.327737        -0.820441
 C         4.574625        -1.071643        -0.183031
 C         3.111527        -1.142553        -0.862294
 O         1.898931        -1.405806        -0.332731
 H        -0.856864         0.146508        -0.365717
 H        -0.155494        -0.932661         0.824641
 H        -0.212639         0.804399         1.004338
 H         2.556937         1.511938         1.085799
 H         2.856711        -0.035679         1.356329
 H         1.595695         1.796395        -1.496837
 H         1.638687         0.220614        -2.437184
 H         5.312385        -1.618453        -0.652449
 H         4.799413        -1.009481         0.904383
 H         3.267803        -1.596053        -1.893100
