19
Iteration:  4225
 C        -0.036950        -0.005563         0.280481
 C         1.365254         0.001686        -0.225006
 C         2.523344         0.580948         0.651573
 C         3.287540         0.366088        -0.849713
 C         1.823935         0.766104        -1.485828
 O         4.704170         0.361236        -0.818035
 C         4.561052        -1.064902        -0.219829
 C         3.127007        -1.148675        -0.846749
 O         1.889198        -1.437474        -0.308776
 H        -0.934681         0.228575        -0.437172
 H        -0.325734        -1.006689         0.799424
 H        -0.171357         0.875486         0.978411
 H         2.453685         1.723585         0.893466
 H         2.970111        -0.072443         1.497478
 H         1.545412         1.880493        -1.459241
 H         1.582923         0.358749        -2.497309
 H         5.462839        -1.607276        -0.694383
 H         4.616101        -1.046689         0.851961
 H         3.065548        -1.638606        -1.824675
