19
Iteration:   614
 C        -0.097648         0.082942         0.191274
 C         1.370526        -0.063838        -0.173449
 C         2.509341         0.451306         0.732627
 C         3.213130         0.386894        -0.572044
 C         1.993395         0.912516        -1.269225
 O         4.661529         0.296524        -0.929099
 C         4.691905        -1.104607        -0.436720
 C         3.114544        -1.113945        -0.861232
 O         1.808601        -1.453115        -0.407489
 H        -0.581048        -0.622454         0.876973
 H        -0.126532         1.105526         0.689353
 H        -0.635831         0.047970        -0.710744
 H         2.381726         1.389363         1.240808
 H         2.671271        -0.372084         1.422495
 H         1.714087         1.959573        -0.976809
 H         1.818327         0.785597        -2.367993
 H         5.218874        -1.706798        -1.095440
 H         4.910748        -1.134718         0.664976
 H         3.133407        -1.143657        -1.955727
