19
Iteration:  2781charge 0 multiplicity 1
 C        -0.124447         0.031909         0.376699
 C         1.333151         0.041362        -0.265994
 C         2.510084         0.424146         0.653104
 C         3.233649         0.320564        -0.768998
 C         1.930760         0.853118        -1.454123
 O         4.676906         0.332841        -0.648820
 C         4.553673        -1.086295        -0.341614
 C         3.230422        -1.072768        -0.999160
 O         1.871588        -1.364774        -0.405470
 H         0.164877         0.126286         1.477425
 H        -0.940592         0.591195         0.014197
 H        -0.706178        -0.972697         0.265674
 H         2.528596         1.477881         1.090447
 H         3.044615        -0.266758         1.489213
 H         1.654731         1.980884        -1.451822
 H         1.742085         0.476860        -2.477410
 H         5.252812        -1.813208        -0.886305
 H         4.585772        -1.395595         0.686785
 H         3.458474        -1.407748        -2.000012
