19
Iteration:  4677
 C        -0.110683         0.018672         0.082789
 C         1.362751        -0.093437        -0.087778
 C         2.466111         0.691377         0.729209
 C         3.201560         0.324355        -0.715685
 C         1.946281         0.845395        -1.371337
 O         4.634358         0.358344        -0.850522
 C         4.688214        -1.115400        -0.388696
 C         3.128782        -1.195995        -0.868522
 O         1.900283        -1.419827        -0.266718
 H        -0.630360         0.178071        -0.909747
 H        -0.650265        -0.845701         0.583824
 H        -0.279015         0.940557         0.646488
 H         2.435815         1.750872         0.861415
 H         2.867105         0.148831         1.599949
 H         1.855675         1.919419        -1.122515
 H         1.625797         0.518814        -2.386389
 H         5.364786        -1.811571        -0.914562
 H         5.039745        -1.504516         0.608782
 H         3.188430        -1.586913        -1.905519
