19
Iteration:  3122charge 0 multiplicity 1
 C        -0.171770        -0.061896         0.375456
 C         1.245491         0.025480        -0.218750
 C         2.525053         0.575800         0.640758
 C         3.191844         0.378379        -0.769381
 C         1.906689         0.830270        -1.473588
 O         4.785696         0.295348        -0.719071
 C         4.638893        -1.112283        -0.256877
 C         3.183738        -1.079076        -0.962507
 O         1.890430        -1.365393        -0.418037
 H        -0.318691        -1.021001         0.868748
 H        -0.275143         0.705764         1.262876
 H        -1.044186        -0.000716        -0.276174
 H         2.586826         1.718252         0.848971
 H         2.988529        -0.165948         1.281354
 H         1.481287         1.811486        -1.679848
 H         1.842579         0.314607        -2.518033
 H         5.271689        -1.824558        -0.721270
 H         4.737622        -1.185608         0.863279
 H         3.244617        -1.482125        -2.018131
