19
Iteration:  3113charge 0 multiplicity 1
 C        -0.156973        -0.052547         0.412446
 C         1.317789        -0.020277        -0.162135
 C         2.491116         0.533973         0.540385
 C         3.247614         0.393920        -0.775667
 C         1.905266         0.831452        -1.492006
 O         4.861039         0.314589        -0.709346
 C         4.655795        -1.039611        -0.255149
 C         3.121554        -1.093205        -0.991426
 O         1.792534        -1.385400        -0.410372
 H        -0.157682        -0.975436         0.955575
 H        -0.403985         0.933492         1.013842
 H        -0.935599        -0.151284        -0.406487
 H         2.639537         1.448315         1.157732
 H         2.709356        -0.217907         1.320092
 H         1.573603         1.929548        -1.518879
 H         1.681029         0.324224        -2.519583
 H         5.456035        -1.671569        -0.567867
 H         4.447161        -1.129954         0.852862
 H         3.122197        -1.571772        -1.952519
