19
Iteration:   323
 C        -0.066742        -0.007885         0.176195
 C         1.396193         0.009322        -0.113360
 C         2.581578         0.499343         0.790953
 C         3.245791         0.378798        -0.699482
 C         1.937711         0.899311        -1.260210
 O         4.706428         0.332443        -0.745093
 C         4.515036        -1.201495        -0.462870
 C         3.106374        -1.093804        -0.953825
 O         1.823873        -1.373856        -0.463463
 H        -0.176535        -0.477050         1.114301
 H        -0.440255         1.049607         0.187300
 H        -0.716874        -0.486975        -0.594611
 H         2.337695         1.543292         1.084479
 H         2.787010        -0.264112         1.550101
 H         1.912671         1.985091        -1.038205
 H         1.752913         0.439565        -2.241588
 H         5.098749        -1.656604        -1.235773
 H         4.783667        -1.523230         0.571388
 H         3.155235        -1.323052        -2.047047
