19
Iteration:  2538
 C        -0.203380         0.086378         0.130511
 C         1.253714         0.109440        -0.143677
 C         2.504405         0.470090         0.708787
 C         3.239382         0.329175        -0.657087
 C         1.890726         0.896543        -1.338216
 O         4.706954         0.328887        -0.808031
 C         4.743936        -1.156708        -0.438734
 C         3.190494        -1.154932        -0.913144
 O         1.905773        -1.493636        -0.305019
 H        -0.432751         0.206983         1.166621
 H        -0.729841         0.995975        -0.314512
 H        -0.713694        -0.779615        -0.207476
 H         2.419108         1.610055         0.877495
 H         2.879968        -0.027241         1.616017
 H         1.914321         1.956807        -1.190417
 H         1.468687         0.596039        -2.325978
 H         5.360007        -1.727622        -1.075937
 H         5.000848        -1.128700         0.665996
 H         3.171108        -1.607052        -1.840770
