19
Iteration:  4708
 C        -0.116215         0.018577         0.243585
 C         1.285491        -0.001916        -0.224023
 C         2.546548         0.527128         0.740032
 C         3.226401         0.371875        -0.723729
 C         1.993380         0.736234        -1.454372
 O         4.714833         0.374970        -0.848877
 C         4.616918        -1.088904        -0.271292
 C         3.159446        -1.145347        -0.856321
 O         1.807452        -1.363787        -0.381154
 H        -0.716037        -0.611455        -0.426686
 H        -0.212605        -0.392158         1.279764
 H        -0.493144         1.022853         0.491592
 H         2.628627         1.523760         1.272917
 H         2.808328        -0.378530         1.348892
 H         1.688395         1.778094        -1.469749
 H         1.755590         0.404986        -2.469283
 H         5.296416        -1.645842        -0.950646
 H         4.748258        -1.012138         0.856100
 H         3.164992        -1.452135        -1.961409
