19
Iteration:  3328charge 0 multiplicity 1
 C        -0.206645         0.063669         0.187220
 C         1.340487         0.018117        -0.138365
 C         2.598969         0.559181         0.681643
 C         3.163164         0.356360        -0.777330
 C         1.944974         0.727044        -1.469325
 O         4.688172         0.328643        -0.871488
 C         4.678841        -1.007517        -0.363306
 C         3.176493        -1.112458        -0.779073
 O         1.875439        -1.451400        -0.208957
 H        -0.562084         0.418096        -0.751181
 H        -0.329826        -1.078218         0.159196
 H        -0.718793         0.624106         0.958962
 H         2.432530         1.647177         1.047499
 H         2.876397        -0.140164         1.485841
 H         1.496845         1.696659        -1.536923
 H         1.636658         0.210421        -2.433281
 H         5.283904        -1.668759        -0.950250
 H         4.817623        -1.094197         0.772228
 H         3.266530        -1.476915        -1.815474
