19
Iteration:   683
 C        -0.116742        -0.106032         0.389532
 C         1.340607        -0.046813        -0.155691
 C         2.493032         0.573766         0.619005
 C         3.305015         0.414079        -0.678286
 C         1.977908         1.007007        -1.413639
 O         4.795272         0.246174        -0.673754
 C         4.506456        -1.213442        -0.449609
 C         3.093063        -1.015627        -1.003410
 O         1.842545        -1.388574        -0.441980
 H        -0.088801        -0.294174         1.394709
 H        -0.571737         0.780776         0.148486
 H        -0.521420        -1.018726        -0.101444
 H         2.343060         1.562586         1.150568
 H         2.761889        -0.104149         1.473216
 H         1.739861         2.018735        -1.145350
 H         1.831980         0.849156        -2.502375
 H         5.153012        -1.818078        -1.078007
 H         4.536787        -1.383402         0.594231
 H         2.992438        -1.244497        -2.037310
