19
Iteration:  1814
 C        -0.083724         0.032964         0.339777
 C         1.351389        -0.046314        -0.204446
 C         2.584971         0.475114         0.673304
 C         3.254383         0.322007        -0.712847
 C         1.951135         0.984500        -1.377420
 O         4.676655         0.311551        -0.757231
 C         4.569675        -1.121569        -0.276429
 C         3.103301        -1.078190        -0.997647
 O         1.864358        -1.440615        -0.502288
 H        -0.202548        -0.862271         0.831953
 H        -0.256427         0.908968         1.033524
 H        -0.984650         0.049757        -0.326878
 H         2.366043         1.453023         1.017837
 H         2.887656        -0.213310         1.439224
 H         1.829385         2.118018        -1.272610
 H         1.507496         0.592316        -2.345659
 H         5.278513        -1.814543        -0.702197
 H         4.588546        -1.107444         0.870774
 H         3.129222        -1.458602        -1.992125
