19
Iteration:   187
 C        -0.148860        -0.022118         0.369550
 C         1.298332         0.032023        -0.157906
 C         2.600174         0.513272         0.632566
 C         3.295157         0.307842        -0.650870
 C         2.016175         0.918264        -1.338899
 O         4.693300         0.372356        -0.718270
 C         4.551544        -1.223154        -0.398595
 C         3.117878        -1.078928        -0.981247
 O         1.776937        -1.370555        -0.510711
 H        -0.076314        -1.082265         0.696463
 H        -0.326910         0.475907         1.223146
 H        -0.910969         0.157976        -0.283739
 H         2.653372         1.567774         0.676814
 H         3.007981        -0.049710         1.438656
 H         1.869739         1.908929        -1.389827
 H         1.741526         0.404216        -2.242031
 H         5.303388        -1.788696        -0.995281
 H         4.776213        -1.263091         0.623357
 H         3.237357        -1.296846        -2.039621
