19
Iteration:  1829charge 0 multiplicity 1
 C        -0.034969        -0.018856         0.352053
 C         1.371363         0.005156        -0.170093
 C         2.473936         0.536269         0.613431
 C         3.221164         0.376604        -0.710331
 C         1.993178         0.940438        -1.341680
 O         4.678447         0.304713        -0.718532
 C         4.540335        -1.109982        -0.360804
 C         3.192188        -1.187352        -0.977317
 O         1.787785        -1.446420        -0.483571
 H        -0.237267        -0.817805         1.163435
 H        -0.137077         0.908091         0.803741
 H        -0.728441        -0.053517        -0.496106
 H         2.500552         1.663019         0.752829
 H         2.799638         0.064794         1.568225
 H         1.696723         1.870894        -0.956198
 H         2.064117         1.009532        -2.418187
 H         5.377994        -1.670470        -0.843395
 H         4.591967        -1.430825         0.684978
 H         3.091474        -1.364512        -2.151754
