19
Iteration:  2638
 C        -0.042060        -0.102489         0.248815
 C         1.363679         0.013302        -0.223172
 C         2.622206         0.571296         0.657343
 C         3.227792         0.398132        -0.781127
 C         1.943155         0.861736        -1.468015
 O         4.667870         0.310931        -0.743597
 C         4.572361        -1.096100        -0.256770
 C         3.077765        -1.146431        -0.899616
 O         1.818378        -1.351546        -0.346571
 H        -0.034400        -1.071066         0.691336
 H        -0.209634         0.614257         1.086734
 H        -0.942437         0.052815        -0.426121
 H         2.335762         1.591022         0.980309
 H         3.147312        -0.079264         1.396856
 H         1.789805         1.941333        -1.637842
 H         1.745979         0.290891        -2.415504
 H         5.096838        -1.885099        -0.769396
 H         4.632200        -1.090369         0.877547
 H         3.048718        -1.279598        -1.930230
