19
Iteration:  4813
 C        -0.159936         0.018141         0.102112
 C         1.325082        -0.069786        -0.101996
 C         2.450110         0.583123         0.698441
 C         3.241541         0.402538        -0.723977
 C         2.001844         0.870943        -1.418003
 O         4.679035         0.269072        -0.847801
 C         4.688066        -1.067227        -0.413875
 C         3.110225        -1.101195        -0.850039
 O         1.887285        -1.456658        -0.230142
 H        -0.717022        -0.469594        -0.663526
 H        -0.372034        -0.347995         1.110595
 H        -0.385053         1.145665        -0.067416
 H         2.253330         1.583066         1.209890
 H         2.812688        -0.105601         1.493633
 H         1.667936         1.845810        -0.975682
 H         1.848222         0.636715        -2.483414
 H         5.406656        -1.790508        -0.912911
 H         5.036094        -1.182115         0.609821
 H         3.074877        -1.531182        -1.842574
