19
Iteration:  4596
 C        -0.051722         0.031179         0.346051
 C         1.414835        -0.020597        -0.162565
 C         2.465480         0.614908         0.676338
 C         3.198096         0.313560        -0.760946
 C         1.938590         0.824768        -1.446109
 O         4.662817         0.334276        -0.790668
 C         4.604964        -1.045445        -0.272832
 C         3.235054        -1.214834        -0.967079
 O         1.810465        -1.467417        -0.436336
 H        -0.780427        -0.168295        -0.405134
 H        -0.052124        -0.635493         1.161980
 H        -0.203922         1.059790         0.679105
 H         2.344681         1.737778         0.812090
 H         2.724986         0.245337         1.664899
 H         1.635672         1.809264        -1.168763
 H         1.819255         0.626894        -2.477591
 H         5.400567        -1.657909        -0.538363
 H         4.286706        -0.995880         0.727756
 H         3.159180        -1.516623        -2.043708
