19
Iteration:  4942
 C        -0.126977         0.043063         0.172699
 C         1.299912        -0.010313        -0.194693
 C         2.508180         0.535687         0.651879
 C         3.254707         0.305409        -0.742829
 C         1.847776         0.855421        -1.404089
 O         4.747793         0.324022        -0.765184
 C         4.661872        -1.094469        -0.266134
 C         3.162354        -1.189654        -0.935089
 O         1.886434        -1.371673        -0.307147
 H        -0.831695        -0.395487        -0.524891
 H        -0.080800        -0.592254         1.068685
 H        -0.501323         1.142862         0.482307
 H         2.590198         1.652710         0.862205
 H         2.725641        -0.043727         1.540059
 H         1.400194         1.909071        -1.438062
 H         1.724783         0.480685        -2.438020
 H         5.439064        -1.716632        -0.809232
 H         4.427615        -1.044072         0.811305
 H         3.239255        -1.549492        -2.034882
