19
Iteration:  4287charge 0 multiplicity 1
 C        -0.033567        -0.024182         0.257955
 C         1.333129        -0.021540        -0.222610
 C         2.526150         0.591711         0.653508
 C         3.230373         0.338867        -0.733300
 C         1.892549         0.854836        -1.521435
 O         4.643886         0.325804        -0.782897
 C         4.584796        -1.098203        -0.345564
 C         3.125706        -1.137751        -0.857454
 O         1.885308        -1.409477        -0.250491
 H        -0.489456        -0.949302        -0.139450
 H        -0.105888        -0.216436         1.327589
 H        -0.430546         0.978156         0.225836
 H         2.452998         1.726728         0.650769
 H         2.861833        -0.112759         1.441225
 H         1.784858         1.969983        -1.467149
 H         1.759386         0.572228        -2.538943
 H         5.474302        -1.671013        -0.798072
 H         4.633458        -1.227819         0.762324
 H         3.247793        -1.352505        -1.959348
