19
Iteration:  1388charge 0 multiplicity 1
 C        -0.080858         0.056681         0.212208
 C         1.345422        -0.073994        -0.143132
 C         2.593535         0.488757         0.727080
 C         3.212334         0.423957        -0.652494
 C         1.982648         0.858748        -1.366112
 O         4.713918         0.367084        -0.740461
 C         4.623237        -1.126231        -0.477606
 C         3.102637        -1.187633        -0.956506
 O         1.749677        -1.438130        -0.374431
 H        -0.440704        -0.894149         0.553120
 H        -0.253285         0.950387         0.930465
 H        -0.804749         0.302284        -0.604248
 H         2.502865         1.609421         1.004275
 H         2.884835        -0.050986         1.684668
 H         1.649671         1.845368        -1.097068
 H         1.972683         0.600925        -2.382439
 H         5.329471        -1.715476        -1.094944
 H         4.898653        -1.181340         0.560584
 H         3.062780        -1.193498        -2.094511
