19
Iteration:  4647
 C        -0.151172        -0.031442         0.077024
 C         1.377267         0.005125        -0.140451
 C         2.489711         0.607862         0.681934
 C         3.238428         0.377952        -0.636401
 C         1.940076         0.822996        -1.432806
 O         4.735131         0.338869        -0.829577
 C         4.660222        -1.095314        -0.452684
 C         3.064176        -1.087258        -0.905516
 O         1.894404        -1.465893        -0.123599
 H        -0.712007         0.299136        -0.854244
 H        -0.465623        -1.055923         0.438463
 H        -0.389059         0.723235         0.809025
 H         2.514386         1.626980         1.015049
 H         2.896318         0.010421         1.512425
 H         1.805601         1.936616        -1.490542
 H         1.705554         0.239978        -2.389398
 H         5.333462        -1.828304        -1.067277
 H         4.539085        -1.339442         0.660607
 H         2.849986        -1.353446        -1.925909
