19
Iteration:   640charge 0 multiplicity 1
 C        -0.197665         0.082947         0.264230
 C         1.343578         0.023395        -0.105273
 C         2.485772         0.482831         0.765046
 C         3.238572         0.344355        -0.693572
 C         1.945054         0.858384        -1.248555
 O         4.748949         0.305737        -0.805260
 C         4.710629        -1.124646        -0.426706
 C         3.157051        -1.143662        -1.026593
 O         1.810110        -1.412249        -0.468286
 H        -0.501055        -0.256285         1.211995
 H        -0.426618         1.091799         0.249432
 H        -0.791513        -0.564889        -0.451523
 H         2.438892         1.571146         1.044845
 H         2.898199        -0.166306         1.598661
 H         1.842067         1.896434        -1.038986
 H         1.621635         0.642803        -2.265536
 H         5.436382        -1.680368        -1.079974
 H         4.719906        -1.349569         0.595388
 H         3.192531        -1.341699        -2.092185
