19
Iteration:  4642
 C        -0.188534        -0.066080         0.110857
 C         1.378469        -0.013880        -0.139646
 C         2.501582         0.615867         0.707133
 C         3.228497         0.370538        -0.659761
 C         1.940939         0.808833        -1.478802
 O         4.774479         0.339546        -0.831611
 C         4.671227        -1.108830        -0.425334
 C         3.117129        -1.060044        -0.895114
 O         1.833366        -1.422844        -0.142517
 H        -0.682517         0.246468        -0.795728
 H        -0.549268        -1.022282         0.466336
 H        -0.417737         0.724119         0.874559
 H         2.549391         1.620580         1.206224
 H         2.933044        -0.137181         1.390797
 H         1.854951         1.885838        -1.594539
 H         1.737200         0.335895        -2.417548
 H         5.178862        -1.657001        -1.179519
 H         4.602303        -1.287493         0.644026
 H         2.851160        -1.506071        -1.890265
