19
Iteration:  4536charge 0 multiplicity 1
 C        -0.129266        -0.081586         0.239301
 C         1.323921         0.054310        -0.104841
 C         2.496810         0.699094         0.633982
 C         3.245382         0.259873        -0.682303
 C         2.040990         0.807545        -1.351710
 O         4.651016         0.361352        -0.769939
 C         4.664566        -1.115174        -0.443193
 C         3.161359        -1.158229        -0.907040
 O         1.797469        -1.428113        -0.369807
 H        -0.741241        -0.965772        -0.060556
 H        -0.462586         0.093987         1.320731
 H        -0.585964         0.859261        -0.176888
 H         2.385845         1.782732         0.691683
 H         2.735434         0.298479         1.644667
 H         2.049661         1.967671        -1.249156
 H         1.832798         0.509747        -2.435624
 H         5.302404        -1.861651        -0.999926
 H         4.933776        -1.442460         0.581376
 H         3.296348        -1.341531        -1.947586
