19
Iteration:  2784
 C        -0.127107         0.043000         0.389357
 C         1.327226         0.007891        -0.265565
 C         2.535015         0.413725         0.659846
 C         3.213265         0.310023        -0.791355
 C         1.945497         0.891592        -1.453975
 O         4.684331         0.363341        -0.635293
 C         4.566819        -1.085201        -0.351116
 C         3.223053        -1.103710        -0.982519
 O         1.865596        -1.373051        -0.411634
 H         0.122420         0.134711         1.490808
 H        -0.942795         0.655678        -0.020544
 H        -0.648617        -0.894863         0.276010
 H         2.528748         1.456197         0.941325
 H         2.861093        -0.315961         1.428356
 H         1.577836         1.984287        -1.472327
 H         1.737387         0.519117        -2.496806
 H         5.290723        -1.829054        -0.870102
 H         4.639204        -1.352994         0.722560
 H         3.400107        -1.499108        -1.964685
