19
Iteration:   348charge 0 multiplicity 1
 C        -0.095966         0.032415         0.294568
 C         1.346872         0.022507        -0.162739
 C         2.611004         0.393511         0.661807
 C         3.243997         0.311901        -0.705483
 C         1.961494         0.966087        -1.264648
 O         4.688685         0.309905        -0.801679
 C         4.683067        -1.070648        -0.332843
 C         3.097148        -1.174498        -0.942247
 O         1.721742        -1.390430        -0.512815
 H        -0.370071        -0.778067         1.058134
 H        -0.390349         0.963920         0.695005
 H        -0.705883         0.074378        -0.620714
 H         2.436802         1.334752         1.059896
 H         2.736822        -0.373606         1.355962
 H         1.865910         1.989600        -0.944927
 H         1.831840         0.750837        -2.417079
 H         5.611392        -1.592008        -0.706471
 H         4.609398        -1.084736         0.741759
 H         3.202146        -1.350118        -2.035840
