19
Iteration:   280charge 0 multiplicity 1
 C        -0.075376        -0.054468         0.221668
 C         1.352918         0.025237        -0.148508
 C         2.426630         0.537076         0.713852
 C         3.282945         0.400408        -0.616309
 C         2.051609         0.998126        -1.315746
 O         4.698317         0.299167        -0.669892
 C         4.563998        -1.268458        -0.653297
 C         3.086731        -1.108217        -0.893452
 O         1.873999        -1.382731        -0.358425
 H        -0.272701        -0.140723         1.273788
 H        -0.581201         0.847625        -0.250074
 H        -0.516642        -0.820429        -0.469904
 H         2.252868         1.604804         0.966688
 H         2.824484        -0.210665         1.395423
 H         1.753317         2.031251        -0.880210
 H         1.688798         0.866179        -2.403448
 H         5.002928        -1.837928        -1.459535
 H         4.993148        -1.597036         0.322213
 H         2.997961        -1.336971        -1.989453
