19
Iteration:  3326charge 0 multiplicity 1
 C        -0.200543         0.062564         0.204257
 C         1.332574         0.006603        -0.162171
 C         2.591601         0.543387         0.665636
 C         3.163394         0.366527        -0.783892
 C         1.952909         0.719634        -1.460062
 O         4.708298         0.327767        -0.879093
 C         4.665688        -0.999742        -0.336139
 C         3.177477        -1.095426        -0.791109
 O         1.867899        -1.449121        -0.201819
 H        -0.631106         0.436830        -0.797435
 H        -0.345453        -1.112729         0.184640
 H        -0.682415         0.621753         1.005579
 H         2.465393         1.620014         1.151125
 H         2.851055        -0.132079         1.503039
 H         1.562714         1.734129        -1.570687
 H         1.636583         0.150776        -2.436501
 H         5.250575        -1.658944        -1.004769
 H         4.836862        -1.076841         0.779480
 H         3.212883        -1.456881        -1.811520
