19
Iteration:  3211
 C        -0.123584        -0.032169         0.141885
 C         1.382191        -0.097520        -0.097470
 C         2.500062         0.620501         0.668032
 C         3.219359         0.294356        -0.690574
 C         2.017313         0.784518        -1.355689
 O         4.662356         0.362362        -0.877765
 C         4.707210        -1.003105        -0.410226
 C         3.078758        -1.187082        -0.827016
 O         1.812634        -1.413242        -0.270803
 H        -0.631205        -0.610219        -0.594199
 H        -0.516433        -0.062651         1.169454
 H        -0.385895         1.005851        -0.245132
 H         2.403211         1.716216         0.792339
 H         2.852162         0.194326         1.623160
 H         1.789843         1.846395        -1.352036
 H         1.740979         0.478848        -2.362540
 H         5.507214        -1.559087        -0.826757
 H         4.781654        -0.927212         0.690043
 H         3.051772        -1.405312        -1.918768
