19
Iteration:   771
 C        -0.119056         0.163883         0.158911
 C         1.341727        -0.005196        -0.101342
 C         2.476693         0.433901         0.730051
 C         3.262563         0.331427        -0.599531
 C         1.936862         0.907067        -1.231884
 O         4.659962         0.381755        -0.855251
 C         4.663216        -1.133385        -0.438386
 C         3.149826        -1.141469        -0.939940
 O         1.869773        -1.521168        -0.429206
 H        -0.350739        -0.768401         0.567481
 H        -0.455165         0.873746         0.837735
 H        -0.829287         0.369173        -0.706478
 H         2.415443         1.575191         1.080948
 H         2.820287        -0.007594         1.744183
 H         1.857452         2.023723        -1.256227
 H         1.706124         0.566822        -2.226989
 H         5.130049        -1.761304        -1.243875
 H         5.001214        -1.438302         0.526315
 H         3.256840        -1.456507        -1.965254
