19
Iteration:  1976charge 0 multiplicity 1
 C        -0.006462        -0.039834         0.368648
 C         1.373257         0.041433        -0.196964
 C         2.512527         0.577645         0.639737
 C         3.254951         0.343877        -0.704543
 C         1.968621         0.890783        -1.429627
 O         4.646209         0.286143        -0.650331
 C         4.492223        -1.144071        -0.362804
 C         3.095524        -1.098174        -1.041233
 O         1.881316        -1.449740        -0.439190
 H        -0.085987        -0.957284         0.826351
 H        -0.064548         0.926253         1.029829
 H        -0.801410         0.089662        -0.423026
 H         2.421835         1.659763         0.783847
 H         2.878396         0.143874         1.575752
 H         1.734108         1.913822        -1.114481
 H         1.844326         0.840200        -2.498919
 H         5.196624        -1.781018        -0.812237
 H         4.385677        -1.412232         0.699882
 H         3.330779        -1.246479        -2.173011
