19
Iteration:   672
 C        -0.007519        -0.087893         0.293779
 C         1.380453        -0.005704        -0.195699
 C         2.568870         0.552625         0.723762
 C         3.199693         0.466976        -0.736258
 C         2.024627         0.957220        -1.376034
 O         4.755257         0.318566        -0.664815
 C         4.432274        -1.206020        -0.406559
 C         3.061748        -1.076941        -1.026591
 O         1.813492        -1.418460        -0.415309
 H         0.071695        -0.159259         1.294809
 H        -0.627473         0.706899         0.156325
 H        -0.659141        -0.910497        -0.073303
 H         2.343851         1.554173         1.213486
 H         2.992487        -0.265836         1.346062
 H         1.713155         1.936905        -1.119147
 H         1.728751         0.632263        -2.386383
 H         5.067697        -1.695544        -1.134299
 H         4.737298        -1.667127         0.462179
 H         3.180513        -1.307433        -2.052905
