19
Iteration:  2359charge 0 multiplicity 1
 C        -0.075603        -0.083479         0.198461
 C         1.378239         0.008239        -0.145957
 C         2.512291         0.651029         0.699463
 C         3.251076         0.369336        -0.606922
 C         2.046454         0.928533        -1.298131
 O         4.680468         0.267534        -0.747684
 C         4.562584        -1.156055        -0.469255
 C         3.096511        -1.104470        -1.005225
 O         1.816441        -1.424498        -0.377698
 H        -0.330263        -0.309272         1.288979
 H        -0.488261         0.822896        -0.186377
 H        -0.716238        -0.756001        -0.443905
 H         2.292193         1.772554         0.811722
 H         2.915335         0.191295         1.670949
 H         1.946071         1.998851        -1.203880
 H         1.810193         0.502451        -2.280611
 H         5.290985        -1.916685        -0.960452
 H         4.571392        -1.317328         0.613170
 H         3.070218        -1.411686        -2.028705
