19
Iteration:  3740
 C        -0.005049        -0.002623         0.386156
 C         1.353651        -0.037900        -0.230908
 C         2.513787         0.675222         0.583845
 C         3.189118         0.281040        -0.785147
 C         1.976327         0.828906        -1.513106
 O         4.604467         0.345395        -0.762236
 C         4.618235        -1.069582        -0.246986
 C         3.133636        -1.202802        -0.891192
 O         1.832733        -1.402445        -0.374511
 H        -0.675531        -0.209936        -0.388206
 H         0.024106        -0.848592         1.131586
 H         0.012221         0.936716         1.020783
 H         2.307517         1.758458         0.611850
 H         2.737944         0.167836         1.563973
 H         1.735795         1.927973        -1.364155
 H         1.829804         0.412359        -2.505966
 H         5.475343        -1.467346        -0.766829
 H         4.648280        -1.322274         0.903733
 H         3.116816        -1.685478        -1.914072
