19
Iteration:  1763
 C        -0.091850         0.021148         0.235163
 C         1.324546         0.019073        -0.134668
 C         2.499788         0.581663         0.742852
 C         3.191179         0.299064        -0.671387
 C         2.036066         0.931865        -1.315147
 O         4.644572         0.314508        -0.761847
 C         4.609286        -1.184421        -0.507874
 C         3.181693        -1.074555        -0.954175
 O         1.839091        -1.484512        -0.384363
 H        -0.470549        -0.890917         0.781060
 H        -0.439592         0.924725         0.534194
 H        -0.658901        -0.081114        -0.755265
 H         2.488262         1.679594         1.006978
 H         2.832447        -0.087869         1.562629
 H         1.784918         1.837976        -0.900742
 H         1.850332         1.014431        -2.335673
 H         5.451036        -1.626197        -1.025195
 H         4.825671        -1.297619         0.536933
 H         3.156650        -1.459029        -2.059489
