19
Iteration:  1310charge 0 multiplicity 1
 C        -0.059244        -0.006361         0.292849
 C         1.341496        -0.020678        -0.178414
 C         2.564734         0.493205         0.723014
 C         3.225994         0.364724        -0.663083
 C         1.941342         1.008881        -1.339302
 O         4.704359         0.285532        -0.807506
 C         4.622545        -1.158956        -0.341693
 C         3.146262        -1.165559        -0.951792
 O         1.806637        -1.372013        -0.500301
 H        -0.106232        -0.308851         1.355218
 H        -0.670314         0.990084         0.069193
 H        -0.678399        -0.757933        -0.246976
 H         2.461688         1.544337         1.075960
 H         2.564964        -0.273728         1.548833
 H         1.695328         2.013895        -1.098434
 H         1.655321         0.864546        -2.359144
 H         5.347865        -1.801034        -0.833965
 H         4.575005        -1.325829         0.745026
 H         3.154841        -1.320908        -2.094677
