19
Iteration:  2574charge 0 multiplicity 1
 C        -0.062079         0.091876         0.176227
 C         1.386343        -0.041621        -0.182565
 C         2.548545         0.459463         0.729839
 C         3.163297         0.347389        -0.638277
 C         1.965462         0.808337        -1.417912
 O         4.666667         0.383190        -0.780952
 C         4.591346        -1.118684        -0.409647
 C         3.125187        -1.079915        -0.889157
 O         1.802603        -1.448025        -0.315490
 H        -0.065083         0.002694         1.250029
 H        -0.376509         1.064991        -0.220839
 H        -0.677840        -0.738008        -0.308602
 H         2.230715         1.468986         0.950544
 H         3.102979        -0.045585         1.524166
 H         1.592838         1.866587        -1.486971
 H         2.028331         0.382871        -2.476312
 H         5.274023        -1.831573        -0.962360
 H         5.086387        -1.007600         0.598437
 H         3.241458        -1.305511        -1.999801
