19
Iteration:  4427charge 0 multiplicity 1
 C        -0.073116         0.033740         0.405790
 C         1.280879         0.031304        -0.242935
 C         2.501924         0.564156         0.598943
 C         3.195390         0.312660        -0.748151
 C         1.962519         0.784635        -1.558317
 O         4.706199         0.288080        -0.771852
 C         4.560892        -1.015306        -0.261170
 C         3.153629        -1.088261        -0.893160
 O         1.903136        -1.470945        -0.365050
 H        -0.800829         0.057012        -0.433424
 H        -0.293816        -0.914821         0.966356
 H        -0.001018         0.778931         1.262666
 H         2.427183         1.672759         0.892156
 H         2.948229        -0.054311         1.411102
 H         1.753098         1.955169        -1.472066
 H         1.693250         0.391040        -2.602374
 H         5.377334        -1.742020        -0.525293
 H         4.443988        -0.972856         0.821833
 H         3.286971        -1.299418        -2.005974
