19
Iteration:  4729charge 0 multiplicity 1
 C        -0.002406         0.027715         0.324472
 C         1.382856        -0.061350        -0.179857
 C         2.500127         0.569831         0.603205
 C         3.217990         0.371496        -0.714120
 C         1.932541         0.897818        -1.415346
 O         4.635820         0.291355        -0.760097
 C         4.585646        -1.059854        -0.247946
 C         3.181685        -1.163508        -0.945922
 O         1.847060        -1.457743        -0.441381
 H        -0.485814        -0.843460        -0.120412
 H        -0.142566        -0.001037         1.421557
 H        -0.537135         0.997325         0.153154
 H         2.189591         1.671411         0.504051
 H         2.734958         0.139304         1.626348
 H         1.724819         1.969315        -1.397850
 H         1.742921         0.595866        -2.458796
 H         5.340480        -1.781461        -0.696279
 H         4.431497        -1.128420         0.883284
 H         3.265217        -1.522968        -2.046536
