19
Iteration:   549charge 0 multiplicity 1
 C         0.000228        -0.111426         0.337229
 C         1.374920         0.028074        -0.192127
 C         2.448287         0.611901         0.728639
 C         3.268742         0.373773        -0.620680
 C         1.887117         0.978511        -1.385253
 O         4.800031         0.238212        -0.747936
 C         4.573272        -1.217698        -0.435034
 C         3.108620        -1.085858        -0.978535
 O         1.799429        -1.363010        -0.465992
 H        -0.348218        -0.906978         0.928762
 H        -0.102227         0.901094         0.799306
 H        -0.661965        -0.096791        -0.481719
 H         2.294040         1.666465         0.961943
 H         2.650860        -0.065173         1.565992
 H         1.457182         2.002615        -1.190151
 H         1.772747         0.665402        -2.431093
 H         5.132340        -1.822776        -1.085383
 H         4.690886        -1.413513         0.637313
 H         3.163290        -1.436608        -1.993360
