19
Iteration:  1309charge 0 multiplicity 1
 C        -0.073039        -0.006181         0.288602
 C         1.350694        -0.015695        -0.185178
 C         2.561894         0.491044         0.724477
 C         3.226429         0.359338        -0.666638
 C         1.940784         1.005861        -1.326657
 O         4.706780         0.282161        -0.805370
 C         4.621431        -1.154148        -0.349618
 C         3.152291        -1.167108        -0.957013
 O         1.807825        -1.375493        -0.494637
 H        -0.119664        -0.257729         1.373742
 H        -0.646704         0.977240         0.090480
 H        -0.653216        -0.732433        -0.226658
 H         2.458454         1.510849         1.056191
 H         2.526171        -0.268412         1.513727
 H         1.697680         2.011428        -1.119711
 H         1.638375         0.889231        -2.347882
 H         5.375428        -1.780160        -0.808517
 H         4.572436        -1.284861         0.749471
 H         3.125374        -1.306273        -2.081518
