19
Iteration:  3132
 C        -0.132197        -0.079390         0.335287
 C         1.342450         0.042205        -0.235814
 C         2.550602         0.603838         0.627990
 C         3.237321         0.388513        -0.702117
 C         1.861309         0.808858        -1.493397
 O         4.675678         0.295621        -0.739539
 C         4.567306        -1.152969        -0.317334
 C         3.203598        -1.087925        -0.864078
 O         1.900846        -1.390603        -0.423617
 H        -0.217178        -1.103010         0.715974
 H        -0.177920         0.648190         1.229899
 H        -0.849273         0.273880        -0.374997
 H         2.287929         1.724647         0.846875
 H         2.809070         0.264794         1.640406
 H         1.756770         1.858194        -1.350376
 H         1.702662         0.260948        -2.474115
 H         5.280398        -1.716236        -0.893277
 H         4.769029        -1.251222         0.770823
 H         3.418495        -1.294494        -1.969805
