19
Iteration:  4408charge 0 multiplicity 1
 C        -0.062841         0.009669         0.353143
 C         1.429270        -0.123576        -0.148879
 C         2.523464         0.745902         0.539855
 C         3.285206         0.418769        -0.784638
 C         1.903135         0.816862        -1.393207
 O         4.669381         0.355716        -0.768213
 C         4.538288        -1.154005        -0.210092
 C         3.160368        -1.181680        -0.924407
 O         1.819488        -1.462961        -0.447918
 H        -0.828960         0.030005        -0.466395
 H        -0.273960        -0.905008         0.938365
 H        -0.118860         0.797676         1.092928
 H         2.323123         1.838318         0.517064
 H         2.895405         0.450314         1.593817
 H         1.509945         1.836348        -1.452702
 H         1.803166         0.366293        -2.379026
 H         5.342625        -1.708477        -0.784751
 H         4.482419        -1.217384         0.888182
 H         3.290752        -1.732736        -1.933206
