19
Iteration:  4415
 C        -0.086662         0.011232         0.402970
 C         1.391922        -0.058139        -0.172740
 C         2.576826         0.705220         0.564102
 C         3.223251         0.411620        -0.750244
 C         1.933053         0.765991        -1.498550
 O         4.678045         0.342666        -0.767916
 C         4.528371        -1.116769        -0.211863
 C         3.161388        -1.179412        -0.936149
 O         1.863094        -1.495270        -0.436585
 H        -0.931541         0.261099        -0.274891
 H        -0.236631        -0.978398         0.887968
 H        -0.337369         0.941477         1.040785
 H         2.259783         1.789627         0.666097
 H         2.830290         0.293946         1.529448
 H         1.553301         1.846895        -1.234025
 H         1.891622         0.579346        -2.628338
 H         5.342492        -1.738402        -0.627933
 H         4.533967        -1.104124         0.871710
 H         3.270850        -1.509100        -1.993042
