19
Iteration:  2842
 C        -0.178625        -0.007962         0.165696
 C         1.344479         0.033753        -0.121061
 C         2.461941         0.484107         0.776258
 C         3.245146         0.380039        -0.739250
 C         1.971296         0.832421        -1.334964
 O         4.756158         0.300317        -0.889547
 C         4.640869        -1.124180        -0.376717
 C         3.139389        -1.022380        -0.940576
 O         1.882607        -1.407510        -0.304299
 H        -0.525683        -0.424882         1.068814
 H        -0.548094         1.062005         0.187521
 H        -0.480014        -0.674321        -0.637516
 H         2.237201         1.420327         1.336611
 H         2.742820        -0.278443         1.471974
 H         1.753959         1.868558        -1.279797
 H         1.614043         0.303901        -2.242858
 H         5.252284        -1.821550        -0.885888
 H         4.745503        -1.072272         0.746173
 H         3.070249        -1.151393        -2.076021
