19
Iteration:  1882charge 0 multiplicity 1
 C        -0.158234         0.002192         0.136646
 C         1.373636         0.018360        -0.157457
 C         2.536831         0.502449         0.817105
 C         3.258662         0.413834        -0.655900
 C         1.934908         0.883020        -1.282847
 O         4.748588         0.303232        -0.748472
 C         4.618312        -1.197433        -0.525100
 C         3.132510        -1.113078        -1.019926
 O         1.817381        -1.391534        -0.327836
 H        -0.457623        -0.119837         1.197626
 H        -0.486968         0.886905        -0.243790
 H        -0.706614        -0.765505        -0.467917
 H         2.414257         1.581433         1.067275
 H         2.996497        -0.075747         1.603361
 H         1.721218         1.932221        -1.101400
 H         1.546135         0.634298        -2.305600
 H         5.390835        -1.805026        -1.054360
 H         4.818699        -1.265261         0.557328
 H         2.921840        -1.279552        -2.036669
