19
Iteration:  1653
 C        -0.074158         0.011808         0.343512
 C         1.390092        -0.015574        -0.154816
 C         2.538936         0.446311         0.717830
 C         3.243298         0.369021        -0.659070
 C         1.975503         0.895416        -1.358221
 O         4.690353         0.334949        -0.773860
 C         4.555481        -1.121618        -0.345916
 C         3.143919        -1.120543        -0.971361
 O         1.779957        -1.380939        -0.583758
 H        -0.075948        -0.507503         1.348484
 H        -0.239659         1.092540         0.470744
 H        -0.790555        -0.470887        -0.425811
 H         2.397796         1.438120         1.204225
 H         2.835601        -0.227099         1.582122
 H         1.729095         1.856049        -1.091919
 H         1.871250         0.595353        -2.349628
 H         5.321024        -1.652310        -0.846430
 H         4.591391        -1.212606         0.761623
 H         3.125762        -1.328840        -2.063697
