19
Iteration:  4909charge 0 multiplicity 1
 C        -0.063005        -0.031270         0.315452
 C         1.407865        -0.043495        -0.120450
 C         2.519079         0.645728         0.588468
 C         3.255421         0.440630        -0.726838
 C         1.975271         0.827379        -1.514133
 O         4.680211         0.286195        -0.747088
 C         4.539330        -1.111982        -0.206040
 C         3.113654        -1.130057        -0.922518
 O         1.816289        -1.413862        -0.441383
 H        -0.757544        -0.056352        -0.541321
 H        -0.089458        -1.011404         0.786905
 H        -0.283853         0.648352         1.223898
 H         2.318299         1.713485         0.527746
 H         2.910727         0.193246         1.484477
 H         1.503411         1.846469        -1.667592
 H         2.015467         0.277654        -2.463066
 H         5.359059        -1.824904        -0.434418
 H         4.619513        -1.138265         0.898677
 H         3.057739        -1.343223        -2.027578
