19
Iteration:  4979charge 0 multiplicity 1
 C        -0.105203         0.033105         0.072224
 C         1.412723        -0.118799        -0.196598
 C         2.537451         0.627514         0.751888
 C         3.252096         0.342368        -0.600982
 C         2.008528         0.865880        -1.378979
 O         4.620332         0.336555        -0.845828
 C         4.652737        -1.100731        -0.407516
 C         3.141384        -1.114353        -0.813544
 O         1.768791        -1.444070        -0.312441
 H        -0.721628        -0.843736        -0.308834
 H        -0.313147         0.154823         1.202346
 H        -0.500523         0.942908        -0.299641
 H         2.353251         1.720007         0.764333
 H         2.695792         0.137651         1.762097
 H         1.496612         1.796342        -1.259428
 H         2.036477         0.353693        -2.393942
 H         5.370067        -1.608660        -1.008456
 H         5.058083        -1.457791         0.517107
 H         3.070374        -1.471876        -1.816862
