19
Iteration:   822charge 0 multiplicity 1
 C        -0.080223        -0.084987         0.270826
 C         1.339363         0.124441        -0.127839
 C         2.495802         0.619441         0.749314
 C         3.266092         0.346635        -0.747371
 C         1.951676         1.038764        -1.344106
 O         4.631076         0.256502        -0.700417
 C         4.604914        -1.250159        -0.445518
 C         3.130972        -1.112249        -1.014784
 O         1.939113        -1.468564        -0.435795
 H        -0.274422        -0.807375         1.086328
 H        -0.503338         0.947791         0.540847
 H        -0.761037        -0.406617        -0.613596
 H         2.480980         1.553847         1.189800
 H         2.798531         0.023652         1.561911
 H         1.705834         2.081589        -1.051425
 H         1.600668         0.864443        -2.411319
 H         5.268612        -1.882344        -0.998487
 H         4.463072        -1.480435         0.671494
 H         3.169735        -1.262174        -2.142503
