19
Iteration:  2826charge 0 multiplicity 1
 C        -0.113971         0.043976         0.192392
 C         1.349324        -0.041297        -0.145032
 C         2.536439         0.513590         0.746695
 C         3.242765         0.378710        -0.570438
 C         1.892447         0.829793        -1.341120
 O         4.662208         0.325042        -0.886479
 C         4.611035        -1.100151        -0.363529
 C         3.203698        -1.132737        -0.879879
 O         1.852965        -1.410573        -0.491094
 H        -0.222011        -0.083263         1.337794
 H        -0.498128         0.995275        -0.136838
 H        -0.785249        -0.705911        -0.307250
 H         2.562165         1.561837         1.053246
 H         2.736832         0.051336         1.786398
 H         1.557727         1.919694        -1.187322
 H         1.881775         0.395229        -2.366718
 H         5.448634        -1.695475        -0.875830
 H         4.755754        -1.111704         0.708678
 H         3.227832        -1.439015        -1.905638
