19
Iteration:  4870charge 0 multiplicity 1
 C        -0.087415        -0.015703         0.241066
 C         1.284131         0.027849        -0.222118
 C         2.514783         0.589509         0.601509
 C         3.190185         0.327961        -0.707007
 C         1.934856         0.906115        -1.483521
 O         4.712404         0.293104        -0.776380
 C         4.689932        -1.133052        -0.283881
 C         3.154406        -1.129672        -0.857082
 O         1.826404        -1.416487        -0.305518
 H        -0.728405         0.200028        -0.624981
 H        -0.326372        -1.029017         0.659656
 H        -0.202402         0.663808         1.108629
 H         2.224479         1.725354         0.585657
 H         2.972207         0.032195         1.493375
 H         1.474360         1.901042        -1.379967
 H         1.740157         0.628540        -2.545701
 H         5.422665        -1.794876        -0.820948
 H         4.816422        -1.057335         0.819952
 H         3.383944        -1.747573        -1.710421
