19
Iteration:  3953
 C        -0.049576         0.021112         0.288079
 C         1.317606         0.024322        -0.206234
 C         2.550103         0.605875         0.615451
 C         3.220240         0.357839        -0.758783
 C         1.836699         0.741568        -1.434817
 O         4.693485         0.329672        -0.759817
 C         4.614611        -1.088299        -0.254629
 C         3.199341        -1.139765        -0.889887
 O         1.863133        -1.436182        -0.401476
 H        -0.803682         0.111146        -0.503793
 H        -0.390563        -0.783933         0.911333
 H        -0.237341         0.767870         1.037279
 H         2.341130         1.647933         0.767832
 H         2.903850         0.155412         1.540081
 H         1.503083         1.839918        -1.398608
 H         1.526418         0.301195        -2.433386
 H         5.581430        -1.452226        -0.785593
 H         4.692615        -1.207279         0.862357
 H         3.280346        -1.525671        -1.988653
