19
Iteration:    49
 C         0.031536        -0.110106         0.357995
 C         1.386801        -0.053518        -0.245756
 C         2.554206         0.533868         0.696056
 C         3.215501         0.450372        -0.675317
 C         1.965266         0.970678        -1.403140
 O         4.711277         0.271288        -0.668559
 C         4.449069        -1.166309        -0.434508
 C         3.090110        -1.073404        -0.981332
 O         1.824006        -1.386054        -0.446760
 H         0.255076         0.145879         1.421462
 H        -0.586727         0.761418         0.058372
 H        -0.652239        -0.922927         0.135308
 H         2.313022         1.575619         0.900539
 H         2.923922        -0.045472         1.553798
 H         1.668320         2.041567        -1.222339
 H         1.901036         0.575099        -2.459176
 H         5.119877        -1.738411        -1.102831
 H         4.686043        -1.442553         0.592032
 H         3.066297        -1.309503        -2.059684
