19
Iteration:  1895
 C        -0.065149         0.020855         0.059560
 C         1.384395        -0.105681        -0.049641
 C         2.537407         0.513897         0.670652
 C         3.253035         0.310207        -0.634686
 C         1.963502         1.009228        -1.198180
 O         4.682372         0.295425        -0.815098
 C         4.603919        -1.101748        -0.486409
 C         3.106722        -1.104561        -0.946651
 O         1.794864        -1.420909        -0.340342
 H        -0.321667         0.055586         1.182344
 H        -0.412482         0.940786        -0.263391
 H        -0.539478        -0.789426        -0.434143
 H         2.392817         1.617129         0.912168
 H         2.759295         0.004127         1.661307
 H         1.618126         1.982419        -0.915235
 H         1.949885         0.737387        -2.246494
 H         5.346387        -1.645980        -1.154670
 H         4.580808        -1.517251         0.525423
 H         3.153917        -1.462117        -2.012268
