19
Iteration:  2823charge 0 multiplicity 1
 C        -0.098743         0.065960         0.200768
 C         1.362475        -0.077606        -0.174743
 C         2.563238         0.523870         0.739015
 C         3.201193         0.363628        -0.593321
 C         1.910107         0.848375        -1.335776
 O         4.651228         0.326078        -0.856233
 C         4.630547        -1.088171        -0.359523
 C         3.219018        -1.137076        -0.880264
 O         1.819184        -1.427018        -0.504018
 H        -0.162097        -0.028716         1.307703
 H        -0.510015         1.016457        -0.082718
 H        -0.734792        -0.816771        -0.223315
 H         2.515946         1.604989         1.046844
 H         2.723577         0.167855         1.828447
 H         1.590423         1.868993        -1.107381
 H         1.843465         0.385750        -2.298214
 H         5.389856        -1.663153        -0.878424
 H         4.770566        -1.051554         0.706792
 H         3.161302        -1.435831        -1.956559
