19
Iteration:  2229
 C        -0.058661         0.010068         0.096799
 C         1.443278        -0.027175        -0.120493
 C         2.508915         0.674120         0.732067
 C         3.185201         0.329542        -0.642531
 C         1.959962         0.935725        -1.316402
 O         4.636148         0.257526        -0.728060
 C         4.619338        -1.172577        -0.483366
 C         3.074911        -1.141785        -0.913431
 O         1.829090        -1.427594        -0.340883
 H        -0.380495        -1.031959         0.362294
 H        -0.294357         0.564512         0.926180
 H        -0.583213         0.212001        -0.840237
 H         2.353949         1.783631         0.940424
 H         3.063934         0.214883         1.602614
 H         2.006361         1.986871        -1.253769
 H         1.736625         0.582454        -2.338481
 H         5.309272        -1.614232        -1.271507
 H         4.908355        -1.561221         0.500159
 H         3.203989        -1.289724        -2.006849
