19
Iteration:  3434
 C        -0.090731         0.048143         0.351567
 C         1.350584        -0.099551        -0.115962
 C         2.537206         0.558296         0.579643
 C         3.175203         0.393549        -0.792317
 C         1.891583         0.839327        -1.487896
 O         4.659080         0.304287        -0.796596
 C         4.546489        -1.051298        -0.211987
 C         3.218791        -1.156710        -0.882243
 O         1.908125        -1.438413        -0.477867
 H        -0.695396        -0.895228         0.238822
 H        -0.151603         0.121853         1.513482
 H        -0.537494         0.985038         0.048259
 H         2.408100         1.618253         0.930143
 H         2.999112         0.028303         1.417655
 H         1.687319         1.871683        -1.230133
 H         1.644476         0.638393        -2.604780
 H         5.462782        -1.584112        -0.480250
 H         4.698014        -1.024720         0.867487
 H         3.427657        -1.575210        -1.868086
