19
Iteration:  1104charge 0 multiplicity 1
 C        -0.168560         0.037210         0.181110
 C         1.262972         0.007626        -0.097738
 C         2.504678         0.516607         0.681125
 C         3.281378         0.367287        -0.620629
 C         1.889208         0.961314        -1.223959
 O         4.796879         0.231140        -0.740188
 C         4.670388        -1.227475        -0.528582
 C         3.138705        -1.087850        -0.983382
 O         1.862500        -1.369555        -0.417386
 H        -0.289353        -0.405309         1.154462
 H        -0.561753         1.023882        -0.161454
 H        -0.557076        -0.703998        -0.544407
 H         2.461551         1.581556         1.047646
 H         2.707070        -0.026413         1.691857
 H         1.543120         1.966621        -0.884327
 H         1.713285         0.719739        -2.286614
 H         5.408381        -1.755206        -1.141640
 H         4.602925        -1.537582         0.538624
 H         3.051761        -1.122928        -2.045418
