19
Iteration:   783charge 0 multiplicity 1
 C        -0.143026         0.059782         0.168220
 C         1.360701        -0.040780        -0.134586
 C         2.559841         0.524481         0.817962
 C         3.205792         0.376482        -0.611751
 C         1.992210         0.865831        -1.327515
 O         4.661952         0.311109        -0.795336
 C         4.715069        -1.155393        -0.522035
 C         3.113411        -1.100640        -0.904272
 O         1.770503        -1.435466        -0.420691
 H        -0.588235        -0.806694         0.590997
 H        -0.157102         0.835947         0.870376
 H        -0.664309         0.279715        -0.764361
 H         2.406829         1.634881         1.132656
 H         2.880714        -0.286605         1.556571
 H         1.625427         1.893395        -1.085340
 H         1.871752         0.530936        -2.329689
 H         5.549949        -1.614002        -1.133038
 H         4.987417        -1.140426         0.498740
 H         3.085673        -1.274214        -1.970724
