19
Iteration:   565charge 0 multiplicity 1
 C        -0.153638        -0.000292         0.237219
 C         1.333345         0.001250        -0.149228
 C         2.608050         0.555980         0.661756
 C         3.203537         0.423707        -0.724087
 C         1.876887         0.938879        -1.313752
 O         4.743189         0.194276        -0.699595
 C         4.637087        -1.222077        -0.441114
 C         3.143929        -1.044830        -0.944316
 O         1.829937        -1.370943        -0.407297
 H        -0.192051        -1.076573         0.699515
 H        -0.431019         0.588711         1.078809
 H        -0.945223        -0.114980        -0.634503
 H         2.398536         1.621102         0.917078
 H         3.113066         0.004166         1.486387
 H         1.723611         1.979519        -1.089009
 H         1.556713         0.757790        -2.343425
 H         5.428777        -1.727192        -1.157965
 H         4.768507        -1.368964         0.641675
 H         3.188888        -1.244241        -2.063544
