19
Iteration:  2057charge 0 multiplicity 1
 C        -0.143008         0.098806         0.094891
 C         1.317385        -0.045450        -0.173155
 C         2.564084         0.431446         0.772290
 C         3.246798         0.411499        -0.649409
 C         2.000076         0.930437        -1.323324
 O         4.657955         0.313806        -0.801714
 C         4.580931        -1.101202        -0.493728
 C         3.117707        -1.106656        -0.923679
 O         1.885922        -1.465203        -0.261236
 H        -0.338355        -0.329718         1.201566
 H        -0.379704         1.133443         0.020994
 H        -0.670729        -0.422975        -0.745522
 H         2.476411         1.350065         1.320988
 H         3.119438        -0.352689         1.260023
 H         1.742101         2.031748        -1.140484
 H         1.734188         0.519687        -2.391453
 H         5.129711        -1.963165        -1.024061
 H         4.719004        -1.251879         0.599640
 H         3.127638        -1.294323        -1.994968
