19
Iteration:  3713
 C        -0.133004         0.060206         0.234228
 C         1.307558         0.024749        -0.143639
 C         2.564054         0.574353         0.697357
 C         3.213698         0.347127        -0.736746
 C         1.894432         0.766724        -1.441625
 O         4.756377         0.369216        -0.872212
 C         4.630330        -1.062136        -0.370336
 C         3.176914        -1.163563        -0.783311
 O         1.821386        -1.448145        -0.334046
 H        -0.640044        -0.547687        -0.653757
 H        -0.382361        -0.440497         1.177398
 H        -0.423821         1.111525         0.296621
 H         2.453496         1.609537         1.043881
 H         2.766442        -0.123511         1.498717
 H         1.625242         1.789263        -1.429255
 H         1.696947         0.094136        -2.293105
 H         5.459971        -1.602194        -0.904568
 H         4.723574        -1.264419         0.644782
 H         3.199746        -1.505195        -1.810986
