19
Iteration:   279
 C        -0.068784        -0.050446         0.223145
 C         1.346923         0.027316        -0.147101
 C         2.430650         0.532803         0.708240
 C         3.294394         0.395816        -0.611828
 C         2.046775         0.993048        -1.319422
 O         4.693972         0.304233        -0.669642
 C         4.566543        -1.268232        -0.652552
 C         3.085808        -1.106926        -0.893628
 O         1.866064        -1.379843        -0.359382
 H        -0.260512        -0.166949         1.258087
 H        -0.591407         0.842041        -0.271012
 H        -0.489478        -0.819544        -0.469850
 H         2.263036         1.622369         0.950005
 H         2.828831        -0.241854         1.398316
 H         1.746171         2.026273        -0.841178
 H         1.699195         0.844642        -2.385298
 H         4.996978        -1.830251        -1.454562
 H         4.997283        -1.591127         0.336315
 H         2.994608        -1.330377        -1.987994
