19
Iteration:  3565charge 0 multiplicity 1
 C        -0.130112        -0.002814         0.313120
 C         1.330509         0.016654        -0.199034
 C         2.449481         0.514833         0.606133
 C         3.180393         0.270877        -0.825167
 C         1.895705         0.836153        -1.394640
 O         4.731755         0.305785        -0.849596
 C         4.766818        -1.004815        -0.266403
 C         3.170924        -1.189871        -0.826324
 O         1.847641        -1.338576        -0.358850
 H        -0.810557         0.106175        -0.515428
 H        -0.325132        -0.997841         0.879061
 H        -0.428617         0.846208         0.946728
 H         2.251895         1.634438         0.664159
 H         2.791739         0.258323         1.610466
 H         1.666887         1.898481        -1.290998
 H         1.602893         0.403535        -2.399274
 H         5.479320        -1.685135        -0.743067
 H         4.841107        -1.135771         0.878268
 H         3.267737        -1.671439        -1.850584
