19
Iteration:  4425
 C        -0.081357         0.030807         0.412672
 C         1.287059         0.029540        -0.235753
 C         2.528611         0.589440         0.602442
 C         3.189363         0.316269        -0.742287
 C         1.963238         0.775185        -1.567727
 O         4.704608         0.294388        -0.767424
 C         4.550933        -1.027371        -0.260005
 C         3.154221        -1.097175        -0.906215
 O         1.902993        -1.481402        -0.378714
 H        -0.781956         0.064578        -0.422367
 H        -0.313497        -0.903382         0.960093
 H        -0.030005         0.788933         1.261455
 H         2.370844         1.665211         0.861630
 H         2.944673         0.028147         1.403184
 H         1.728681         1.883356        -1.387554
 H         1.719328         0.461334        -2.634031
 H         5.341540        -1.726550        -0.479480
 H         4.486526        -0.978212         0.832851
 H         3.277214        -1.271773        -1.959566
