19
Iteration:  4994
 C        -0.106114         0.044025         0.076727
 C         1.315788         0.004091        -0.133615
 C         2.438036         0.644596         0.674597
 C         3.255118         0.359852        -0.619669
 C         1.941915         0.800459        -1.344636
 O         4.715178         0.296354        -0.777743
 C         4.704432        -1.127733        -0.478252
 C         3.146627        -1.159949        -0.890834
 O         1.827091        -1.450393        -0.264603
 H        -0.503229        -0.907432        -0.246604
 H        -0.382036         0.171030         1.082855
 H        -0.565840         0.786515        -0.584304
 H         2.213907         1.663809         1.047551
 H         2.799461         0.198772         1.604281
 H         1.835712         1.854092        -1.055001
 H         1.728739         0.593177        -2.376933
 H         5.384609        -1.780658        -1.080325
 H         4.831571        -1.153378         0.604295
 H         3.201375        -1.325798        -1.982972
