19
Iteration:  2813charge 0 multiplicity 1
 C        -0.037701         0.080159         0.248448
 C         1.379199        -0.114396        -0.216734
 C         2.560771         0.581066         0.726357
 C         3.181951         0.303836        -0.698928
 C         1.979249         0.852625        -1.306834
 O         4.640099         0.346045        -0.760462
 C         4.689796        -1.026617        -0.337173
 C         3.152746        -1.131591        -0.923409
 O         1.724813        -1.491833        -0.499300
 H        -0.051098         0.124550         1.381913
 H        -0.526146         0.960545        -0.111680
 H        -0.619700        -0.875072        -0.045975
 H         2.188746         1.606140         0.720190
 H         2.979558        -0.035492         1.632054
 H         1.694623         1.908032        -1.096049
 H         1.658015         0.665516        -2.330647
 H         5.395268        -1.678367        -0.886901
 H         4.811381        -1.130786         0.729686
 H         3.324006        -1.334492        -2.000173
