19
Iteration:  2837charge 0 multiplicity 1
 C        -0.160307        -0.004399         0.179539
 C         1.340584         0.039957        -0.115050
 C         2.463004         0.496053         0.790296
 C         3.289533         0.372322        -0.661429
 C         1.931845         0.804679        -1.325112
 O         4.723413         0.315306        -0.912401
 C         4.628367        -1.120959        -0.359529
 C         3.129805        -1.055770        -0.918773
 O         1.897191        -1.399742        -0.379789
 H        -0.545253        -0.253298         1.247396
 H        -0.461198         1.035726         0.048342
 H        -0.639067        -0.667658        -0.580068
 H         2.317453         1.527221         1.117159
 H         2.808435        -0.376617         1.408889
 H         1.639232         1.912152        -1.402222
 H         1.711377         0.405321        -2.358014
 H         5.361915        -1.824677        -0.896471
 H         4.717340        -1.141928         0.719330
 H         3.260113        -1.222264        -1.967495
