19
Iteration:  1056
 C        -0.136345        -0.053803         0.247003
 C         1.310883         0.070163        -0.197732
 C         2.562962         0.448883         0.785072
 C         3.281502         0.336425        -0.603166
 C         2.051793         0.971877        -1.324611
 O         4.680111         0.317412        -0.746293
 C         4.563761        -1.185670        -0.453773
 C         3.114458        -1.093151        -1.101194
 O         1.806104        -1.374823        -0.394490
 H        -0.186479        -0.484213         1.250193
 H        -0.517386         0.938624         0.084306
 H        -0.670918        -0.667373        -0.409468
 H         2.631398         1.468180         1.194422
 H         2.664336        -0.144836         1.663190
 H         1.944723         1.968956        -1.118941
 H         1.879547         0.650283        -2.340701
 H         5.342592        -1.744936        -0.968744
 H         4.594934        -1.233618         0.609065
 H         3.117194        -1.343271        -2.189696
