19
Iteration:  4407charge 0 multiplicity 1
 C        -0.055340         0.006140         0.343262
 C         1.426938        -0.124634        -0.147559
 C         2.516424         0.744375         0.539946
 C         3.288878         0.412299        -0.787495
 C         1.901007         0.820473        -1.381667
 O         4.672086         0.355307        -0.767470
 C         4.538427        -1.154209        -0.213387
 C         3.159725        -1.177453        -0.920617
 O         1.815028        -1.456539        -0.447123
 H        -0.800051        -0.008311        -0.504610
 H        -0.287716        -0.902322         0.954669
 H        -0.078621         0.799357         1.118920
 H         2.318402         1.861388         0.502566
 H         2.913205         0.468724         1.591273
 H         1.495443         1.874489        -1.469660
 H         1.770801         0.315459        -2.368167
 H         5.351314        -1.712868        -0.786647
 H         4.490182        -1.229540         0.876671
 H         3.290459        -1.747504        -1.933587
