19
Iteration:  4386
 C        -0.080019        -0.040071         0.253892
 C         1.420454         0.045041        -0.146095
 C         2.573716         0.657054         0.622925
 C         3.190832         0.381618        -0.730934
 C         1.800355         0.729188        -1.467792
 O         4.737911         0.259289        -0.762757
 C         4.619693        -1.079590        -0.299630
 C         3.138187        -1.136759        -0.889644
 O         1.846047        -1.365787        -0.351281
 H        -0.696773        -0.339400        -0.645469
 H        -0.133751        -0.884906         0.950812
 H        -0.552685         0.846516         0.691617
 H         2.456995         1.753452         0.820860
 H         2.822179         0.057793         1.570265
 H         1.664838         1.827608        -1.376708
 H         1.573194         0.441865        -2.474860
 H         5.312821        -1.790210        -0.861801
 H         4.606673        -1.101740         0.801319
 H         3.217287        -1.359905        -2.021165
