19
Iteration:  4825
 C        -0.105472         0.073954         0.043651
 C         1.381308        -0.035611        -0.139970
 C         2.476232         0.532626         0.796145
 C         3.198627         0.341082        -0.656875
 C         1.869271         0.852482        -1.419769
 O         4.686283         0.308981        -0.879980
 C         4.632639        -1.109132        -0.399875
 C         3.195290        -1.130005        -0.857307
 O         1.920108        -1.444165        -0.214279
 H        -0.665921        -0.287232        -0.790748
 H        -0.553219        -0.447448         0.924772
 H        -0.336209         1.175307         0.326576
 H         2.427224         1.679476         1.076434
 H         2.655553        -0.215888         1.631187
 H         1.686793         1.954980        -1.558391
 H         1.612270         0.432305        -2.421967
 H         5.391162        -1.603031        -1.075378
 H         4.670067        -1.079174         0.694756
 H         3.209579        -1.332468        -1.943702
