19
Iteration:  2535charge 0 multiplicity 1
 C        -0.217611         0.067821         0.123463
 C         1.264115         0.102197        -0.159730
 C         2.509102         0.471093         0.691620
 C         3.260835         0.364498        -0.649874
 C         1.891736         0.910303        -1.345222
 O         4.695689         0.322515        -0.823968
 C         4.738787        -1.167451        -0.423860
 C         3.174830        -1.140947        -0.882374
 O         1.915589        -1.489922        -0.307206
 H        -0.436446         0.190047         1.246404
 H        -0.675801         0.948480        -0.264890
 H        -0.781070        -0.796700        -0.187219
 H         2.461445         1.568115         0.993512
 H         2.852894        -0.008052         1.633466
 H         1.921569         2.009124        -1.289909
 H         1.417675         0.569809        -2.221036
 H         5.447632        -1.776893        -1.045620
 H         4.962204        -1.305100         0.613962
 H         3.160645        -1.589036        -1.886455
