19
Iteration:  2196
 C        -0.155986         0.076057         0.189770
 C         1.336041        -0.014663        -0.239918
 C         2.479032         0.481834         0.686234
 C         3.259243         0.332040        -0.635819
 C         1.967080         0.824737        -1.317924
 O         4.782431         0.315279        -0.777075
 C         4.622367        -1.075186        -0.423155
 C         3.118690        -1.100822        -0.971209
 O         1.836099        -1.381650        -0.288865
 H        -0.364420        -0.957014         0.559171
 H        -0.279018         0.734777         0.968261
 H        -0.922521         0.373329        -0.564898
 H         2.261903         1.500402         1.137484
 H         2.743914        -0.352708         1.403881
 H         2.017012         1.865159        -1.231913
 H         1.899582         0.505998        -2.378306
 H         5.346429        -1.655315        -1.057919
 H         4.616601        -1.535629         0.559252
 H         2.840490        -1.277803        -2.051290
