19
Iteration:  3415charge 0 multiplicity 1
 C         0.040907        -0.039781         0.303041
 C         1.360057        -0.042710        -0.212568
 C         2.522713         0.675514         0.557523
 C         3.219815         0.285569        -0.751178
 C         1.880317         0.865023        -1.364047
 O         4.710650         0.360021        -0.776412
 C         4.672690        -1.034989        -0.231243
 C         3.102512        -1.180227        -0.940315
 O         1.758507        -1.488703        -0.399328
 H        -0.584755        -0.751890        -0.194109
 H        -0.186467        -0.299277         1.398355
 H        -0.406929         0.977535         0.120603
 H         2.358817         1.769009         0.671030
 H         2.820905         0.413748         1.567057
 H         1.632156         1.920363        -1.249985
 H         1.617935         0.480411        -2.405830
 H         5.414021        -1.666796        -0.669716
 H         4.606993        -1.122503         0.899344
 H         3.202281        -1.582759        -1.922794
