19
Iteration:  4576charge 0 multiplicity 1
 C        -0.043050         0.027459         0.380839
 C         1.339494        -0.080240        -0.221857
 C         2.562773         0.463751         0.536667
 C         3.227618         0.433223        -0.751792
 C         1.903919         0.819904        -1.457980
 O         4.716672         0.334995        -0.776633
 C         4.471085        -1.080948        -0.190334
 C         3.132273        -1.052176        -0.934245
 O         1.884805        -1.451143        -0.392375
 H        -0.792440        -0.431658        -0.239169
 H        -0.042358        -0.283409         1.423441
 H        -0.256643         1.136787         0.183087
 H         2.401466         1.440225         1.098486
 H         2.910346        -0.162623         1.334818
 H         1.754006         1.899271        -1.461470
 H         1.727153         0.331735        -2.391405
 H         5.195046        -1.681370        -0.767334
 H         4.670970        -0.992100         0.966784
 H         3.248649        -1.348674        -2.041149
