19
Iteration:  2740
 C        -0.110652        -0.111359         0.146480
 C         1.336604        -0.045953        -0.122420
 C         2.521435         0.680112         0.690699
 C         3.229934         0.418452        -0.654806
 C         1.986048         0.881237        -1.309786
 O         4.706360         0.261622        -0.815263
 C         4.597486        -1.141817        -0.347708
 C         3.121440        -1.119026        -0.932737
 O         1.823894        -1.411432        -0.396300
 H        -0.114038        -0.189667         1.290341
 H        -0.587281         0.807754        -0.178554
 H        -0.574917        -0.996356        -0.292941
 H         2.185469         1.691405         0.741013
 H         3.032970         0.263970         1.551674
 H         1.961427         2.010802        -1.047265
 H         1.567030         0.893537        -2.336969
 H         5.467142        -1.653926        -0.948927
 H         4.892030        -1.360175         0.696587
 H         3.066117        -1.390298        -1.985383
