19
Iteration:  3248charge 0 multiplicity 1
 C        -0.018343        -0.083260         0.303604
 C         1.310432         0.076692        -0.201683
 C         2.446104         0.591780         0.539243
 C         3.239141         0.373540        -0.768632
 C         1.829550         0.728147        -1.511309
 O         4.762875         0.273847        -0.760326
 C         4.602234        -1.042798        -0.256270
 C         3.155446        -1.077826        -0.912710
 O         1.877984        -1.366556        -0.288312
 H        -0.870458        -0.015662        -0.480644
 H        -0.127070        -0.932007         0.996078
 H         0.013136         0.836023         0.925075
 H         2.345369         1.581382         1.040118
 H         2.739168        -0.010982         1.421714
 H         1.590738         1.817789        -1.479721
 H         1.669427         0.173887        -2.455283
 H         5.337217        -1.816212        -0.679330
 H         4.628881        -1.025226         0.825747
 H         3.216757        -1.493501        -1.903851
