19
Iteration:  3749
 C        -0.006951        -0.053878         0.434020
 C         1.348550         0.034798        -0.227251
 C         2.443724         0.648546         0.526535
 C         3.252153         0.341623        -0.792821
 C         1.947343         0.847398        -1.543235
 O         4.686580         0.334457        -0.739950
 C         4.555037        -1.077346        -0.282886
 C         3.195547        -1.202296        -0.859853
 O         1.820528        -1.476130        -0.362147
 H        -0.848773         0.047625        -0.251932
 H        -0.056170        -0.928572         1.170280
 H        -0.080551         0.949578         0.929415
 H         2.316225         1.750196         0.684904
 H         2.885458         0.249735         1.462309
 H         1.663857         1.896147        -1.406337
 H         1.696322         0.682881        -2.573679
 H         5.294462        -1.807241        -0.647974
 H         4.532535        -0.981318         0.805473
 H         3.227150        -1.639449        -1.855974
