19
Iteration:   993
 C        -0.044375         0.061697         0.306897
 C         1.401925         0.052560        -0.132921
 C         2.480896         0.411232         0.703423
 C         3.303178         0.371539        -0.697194
 C         1.977398         0.899134        -1.299877
 O         4.722470         0.349523        -0.745295
 C         4.534425        -1.105435        -0.380197
 C         3.082867        -1.113531        -1.056363
 O         1.825308        -1.457200        -0.479173
 H        -0.564052        -0.884945         0.694652
 H        -0.359773         0.753049         1.201810
 H        -0.610435         0.233148        -0.542765
 H         2.358760         1.528831         0.977728
 H         2.662274        -0.363553         1.523100
 H         1.846571         1.975602        -1.258667
 H         1.732929         0.447766        -2.304832
 H         5.228195        -1.789663        -0.923571
 H         4.585331        -1.269987         0.710157
 H         3.094284        -1.407303        -2.073933
