19
Iteration:  4837charge 0 multiplicity 1
 C        -0.096643         0.098822         0.077480
 C         1.350912         0.036103        -0.153431
 C         2.519217         0.493359         0.712843
 C         3.231862         0.349648        -0.642657
 C         1.917716         0.714934        -1.332590
 O         4.656176         0.400192        -0.874963
 C         4.614532        -1.102188        -0.372269
 C         3.145221        -1.135017        -0.893767
 O         1.899560        -1.427741        -0.265491
 H        -0.497441         0.039446        -0.929730
 H        -0.407090        -0.761121         0.716358
 H        -0.423429         1.152959         0.361505
 H         2.412750         1.687883         0.904649
 H         2.917023         0.073917         1.715470
 H         1.524448         1.749311        -1.262143
 H         1.787161         0.114600        -2.259396
 H         5.335235        -1.890400        -0.752020
 H         4.769405        -1.294905         0.722402
 H         3.067193        -1.472406        -1.973119
