19
Iteration:  3948
 C        -0.048655         0.022641         0.333829
 C         1.363706        -0.020683        -0.196231
 C         2.560291         0.658438         0.567320
 C         3.216891         0.330087        -0.748838
 C         1.857696         0.767263        -1.419476
 O         4.678368         0.334574        -0.755637
 C         4.626004        -1.074959        -0.246953
 C         3.195950        -1.148154        -0.871940
 O         1.829362        -1.453356        -0.463189
 H        -0.796550         0.071270        -0.479222
 H        -0.284995        -0.928988         0.896856
 H        -0.320368         0.960997         0.917704
 H         2.176015         1.706149         0.762857
 H         2.966945         0.257199         1.515007
 H         1.507950         1.744534        -1.277648
 H         1.723674         0.178997        -2.334606
 H         5.449521        -1.516317        -0.706433
 H         4.612577        -1.200610         0.822578
 H         3.151163        -1.366819        -1.892459
