19
Iteration:   697charge 0 multiplicity 1
 C        -0.095214        -0.119740         0.373572
 C         1.318421         0.046698        -0.189232
 C         2.486154         0.541745         0.703715
 C         3.234120         0.382333        -0.631623
 C         1.943138         0.996411        -1.356747
 O         4.737275         0.203647        -0.727133
 C         4.609958        -1.213507        -0.451172
 C         3.165115        -1.072203        -1.045514
 O         1.837171        -1.328018        -0.469716
 H        -0.111779        -0.338797         1.504877
 H        -0.789775         0.756009         0.268619
 H        -0.797804        -0.741611        -0.192889
 H         2.351173         1.648250         0.567386
 H         2.766861         0.174499         1.742481
 H         1.647569         2.085024        -1.182901
 H         1.847494         0.653958        -2.341835
 H         5.549049        -1.889037        -0.760584
 H         4.664494        -1.538576         0.598652
 H         3.312678        -1.137585        -2.152708
