19
Iteration:  3146
 C         0.058221        -0.049843         0.230991
 C         1.405675        -0.058251        -0.152374
 C         2.430920         0.745320         0.622088
 C         3.250176         0.360661        -0.644872
 C         1.937690         0.789286        -1.382121
 O         4.679431         0.332544        -0.767213
 C         4.616847        -1.124031        -0.374379
 C         3.093389        -1.118984        -0.902792
 O         1.819558        -1.451089        -0.374474
 H        -0.309642        -1.049044         0.383548
 H        -0.210167         0.467570         1.202526
 H        -0.606167         0.321775        -0.610054
 H         2.208503         1.812821         0.604905
 H         2.731520         0.202083         1.513272
 H         1.590064         1.861635        -1.288379
 H         1.614622         0.512167        -2.449209
 H         5.334004        -1.735264        -0.880076
 H         4.680069        -1.241717         0.732983
 H         3.041212        -1.362901        -1.957059
