19
Iteration:  2433charge 0 multiplicity 1
 C        -0.052176         0.122186         0.232965
 C         1.350893        -0.068593        -0.164766
 C         2.585926         0.547623         0.682103
 C         3.219819         0.289142        -0.656382
 C         2.009692         0.812940        -1.386309
 O         4.575373         0.336867        -0.777310
 C         4.565339        -1.063858        -0.331487
 C         3.137809        -1.157593        -0.895853
 O         1.850742        -1.457622        -0.466989
 H        -0.401546        -0.806245         0.628199
 H        -0.026985         0.911024         1.057584
 H        -0.894981         0.538859        -0.447572
 H         2.266320         1.550179         0.825201
 H         2.904555         0.128825         1.627020
 H         1.782553         1.872996        -1.381956
 H         1.795695         0.273954        -2.353273
 H         5.419601        -1.597287        -0.770365
 H         4.776117        -1.113695         0.740097
 H         3.318901        -1.191882        -2.041427
