19
Iteration:  3501charge 0 multiplicity 1
 C        -0.221277        -0.009796         0.092625
 C         1.317257         0.026180        -0.127586
 C         2.514092         0.657873         0.675152
 C         3.211159         0.350679        -0.692092
 C         1.872272         0.843921        -1.354668
 O         4.749823         0.353341        -0.810992
 C         4.692644        -1.138156        -0.517343
 C         3.172044        -1.152650        -0.862179
 O         1.922032        -1.471906        -0.172168
 H        -0.496707        -0.876308        -0.469839
 H        -0.364852        -0.356969         1.193555
 H        -0.750729         0.945415        -0.117276
 H         2.354336         1.727668         0.850525
 H         2.977378         0.157866         1.514783
 H         1.669736         1.926231        -1.220172
 H         1.639868         0.537387        -2.418898
 H         5.376708        -1.692768        -1.071644
 H         4.709713        -1.497107         0.515139
 H         3.011635        -1.485834        -1.863827
