19
Iteration:  1622charge 0 multiplicity 1
 C        -0.126518        -0.007434         0.286731
 C         1.386806         0.056440        -0.142010
 C         2.547104         0.553471         0.683300
 C         3.215180         0.417669        -0.669475
 C         1.883614         0.896322        -1.360904
 O         4.721953         0.278278        -0.666605
 C         4.621736        -1.160944        -0.465632
 C         3.151289        -1.138410        -0.971922
 O         1.850558        -1.439120        -0.459527
 H        -0.375518        -1.028380         0.831231
 H        -0.271313         0.847518         0.829165
 H        -0.814247         0.171699        -0.621509
 H         2.419388         1.619673         0.973853
 H         2.860985        -0.050456         1.575076
 H         1.621735         1.857707        -1.006690
 H         1.712951         0.760561        -2.424926
 H         5.250760        -1.710288        -1.147372
 H         4.700368        -1.630056         0.504735
 H         3.156820        -1.246790        -2.073646
