19
Iteration:  2517charge 0 multiplicity 1
 C        -0.130233        -0.028199         0.178851
 C         1.364651        -0.021729        -0.169485
 C         2.531564         0.581468         0.728271
 C         3.237391         0.396696        -0.651531
 C         1.976598         0.853368        -1.392526
 O         4.714734         0.268398        -0.833885
 C         4.567460        -1.157119        -0.408858
 C         3.146491        -1.065486        -0.890837
 O         1.847702        -1.383581        -0.313304
 H        -0.352379        -0.123343         1.220072
 H        -0.689014         0.913709        -0.170910
 H        -0.536481        -0.874606        -0.346315
 H         2.405194         1.611535         1.128909
 H         2.790898        -0.186780         1.476511
 H         1.537139         1.813920        -1.171393
 H         2.027931         0.582499        -2.489231
 H         5.193582        -1.755093        -1.020805
 H         4.750896        -1.166575         0.722703
 H         3.118802        -1.256338        -1.978141
