19
Iteration:   742charge 0 multiplicity 1
 C        -0.115641         0.112529         0.166869
 C         1.336853        -0.110036        -0.136090
 C         2.578442         0.423576         0.766598
 C         3.251797         0.358028        -0.668863
 C         1.935073         0.955128        -1.325689
 O         4.646281         0.325722        -0.796213
 C         4.650945        -1.065957        -0.387782
 C         3.135284        -1.101824        -1.051691
 O         1.825386        -1.443617        -0.354754
 H        -0.342805        -0.714313         0.957917
 H        -0.282943         1.045604         0.799465
 H        -0.854093         0.068813        -0.591062
 H         2.583727         1.447628         1.148477
 H         2.958286        -0.449230         1.274801
 H         1.752542         2.040786        -1.193183
 H         1.804202         0.670397        -2.373933
 H         5.413857        -1.769332        -0.824001
 H         4.652782        -1.371962         0.691154
 H         3.062438        -1.514714        -2.094417
