19
Iteration:  3193
 C        -0.110985         0.043680         0.029915
 C         1.328884         0.120740        -0.135371
 C         2.536252         0.520131         0.778021
 C         3.212196         0.350114        -0.691050
 C         1.871499         0.770747        -1.389826
 O         4.647911         0.366042        -0.887560
 C         4.700699        -1.065337        -0.396202
 C         3.226327        -1.166018        -0.840678
 O         1.848548        -1.448088        -0.195726
 H        -0.493922        -0.994404        -0.270790
 H        -0.338139         0.055175         1.060830
 H        -0.751759         0.789903        -0.482966
 H         2.468460         1.534482         1.037923
 H         2.755556        -0.251216         1.513238
 H         1.528798         1.874325        -1.353464
 H         1.683759         0.387769        -2.384376
 H         5.326788        -1.697691        -1.124773
 H         5.075009        -1.189961         0.606958
 H         3.193815        -1.654883        -1.779880
