19
Iteration:   794
 C        -0.088446        -0.027323         0.208269
 C         1.344107        -0.055148        -0.169395
 C         2.572433         0.486146         0.727942
 C         3.293749         0.325825        -0.573358
 C         1.978972         0.842352        -1.359241
 O         4.699048         0.292685        -0.774178
 C         4.641541        -1.048027        -0.505497
 C         3.133706        -1.095347        -0.923752
 O         1.735123        -1.318360        -0.364349
 H        -0.487819        -0.908915         0.639081
 H        -0.456659         0.801573         0.709129
 H        -0.634788         0.237252        -0.737525
 H         2.391916         1.574185         1.208498
 H         2.903980        -0.178944         1.654778
 H         1.628432         1.909267        -1.202639
 H         1.829870         0.709922        -2.399921
 H         5.250958        -1.716844        -1.201714
 H         4.656365        -1.577993         0.414730
 H         3.029913        -1.156058        -1.982537
