19
Iteration:  4038
 C        -0.193638        -0.060113         0.196154
 C         1.306441        -0.010901        -0.193734
 C         2.578327         0.572849         0.675100
 C         3.176656         0.414695        -0.729937
 C         1.909359         0.827794        -1.447515
 O         4.771632         0.332640        -0.833961
 C         4.593818        -1.094876        -0.402021
 C         3.141176        -1.121317        -0.844030
 O         1.896444        -1.402434        -0.181899
 H        -0.740648        -0.351082        -0.741455
 H        -0.232753        -0.836993         0.926690
 H        -0.361858         0.998286         0.308598
 H         2.502075         1.633892         0.967075
 H         2.856908        -0.107974         1.478558
 H         1.582641         1.883858        -1.262134
 H         1.880432         0.296788        -2.449208
 H         5.356846        -1.653593        -0.997953
 H         4.701252        -1.238185         0.632330
 H         3.190947        -1.418710        -1.909021
