19
Iteration:  4955
 C        -0.159197         0.033538         0.208374
 C         1.374962         0.067001        -0.197848
 C         2.477801         0.503202         0.675477
 C         3.271652         0.362839        -0.712094
 C         1.979301         0.784715        -1.433064
 O         4.680722         0.316159        -0.809912
 C         4.623601        -1.065056        -0.339394
 C         3.171098        -1.097633        -0.905862
 O         1.848198        -1.445284        -0.277571
 H        -0.603313        -0.559642        -0.598959
 H        -0.541361        -0.300671         1.228659
 H        -0.597668         1.123094         0.087946
 H         2.338043         1.573058         1.028228
 H         2.620456        -0.241307         1.468325
 H         1.823650         1.893165        -1.280914
 H         1.690161         0.324609        -2.435182
 H         5.535308        -1.632492        -0.681681
 H         4.844252        -1.261738         0.735483
 H         3.129285        -1.490627        -1.956913
