19
Iteration:   803charge 0 multiplicity 1
 C        -0.103675        -0.031249         0.204114
 C         1.376588         0.039412        -0.155509
 C         2.536081         0.467060         0.698066
 C         3.262031         0.376391        -0.612244
 C         1.963545         0.888455        -1.329611
 O         4.752043         0.335993        -0.743704
 C         4.563599        -1.162044        -0.489752
 C         3.098768        -1.090385        -0.967269
 O         1.786586        -1.367355        -0.354471
 H        -0.209085        -0.983246         0.684908
 H        -0.447074         0.756770         0.854747
 H        -0.753060        -0.189314        -0.770180
 H         2.516200         1.602697         0.991749
 H         2.817955        -0.157936         1.614918
 H         1.843380         1.993261        -1.179619
 H         1.853561         0.507921        -2.347809
 H         5.165318        -1.665629        -1.284016
 H         4.738014        -1.421480         0.604735
 H         3.063324        -1.364329        -2.026809
