19
Iteration:  1796
 C        -0.049963         0.020248         0.306251
 C         1.343624         0.042664        -0.151728
 C         2.548990         0.394953         0.728014
 C         3.228118         0.409189        -0.714753
 C         1.883876         0.822871        -1.363323
 O         4.765245         0.289405        -0.809144
 C         4.561399        -1.100380        -0.314958
 C         3.168258        -1.082905        -0.961884
 O         1.755642        -1.341773        -0.492818
 H        -0.368063        -0.977007         0.778385
 H        -0.236548         0.792899         0.966309
 H        -0.605473         0.215694        -0.638189
 H         2.623793         1.393079         1.250997
 H         2.821461        -0.422202         1.422400
 H         1.530273         1.799332        -1.215041
 H         1.791306         0.444161        -2.356701
 H         5.421506        -1.652636        -0.715511
 H         4.505469        -1.041619         0.754582
 H         3.536971        -1.365961        -2.012627
