19
Iteration:   729charge 0 multiplicity 1
 C        -0.054200         0.009733         0.256385
 C         1.395434        -0.029260        -0.155114
 C         2.621551         0.382183         0.685571
 C         3.188104         0.393037        -0.675367
 C         1.987891         0.923903        -1.350159
 O         4.712764         0.345451        -0.769195
 C         4.552394        -1.128264        -0.392889
 C         3.110529        -1.084801        -0.910208
 O         1.735128        -1.407410        -0.441771
 H        -0.309193        -0.699508         1.033660
 H        -0.281661         1.025786         0.494858
 H        -0.609891        -0.244316        -0.651038
 H         2.415082         1.406425         1.096220
 H         2.996544        -0.083028         1.625978
 H         1.551170         1.943791        -1.196948
 H         1.804933         0.574018        -2.330510
 H         5.285397        -1.612812        -1.112412
 H         4.763116        -1.214248         0.632683
 H         3.164932        -1.280166        -1.975317
