19
Iteration:  4050
 C        -0.062081        -0.028641         0.217812
 C         1.388557        -0.034423        -0.176656
 C         2.529445         0.562125         0.586380
 C         3.248373         0.387525        -0.736998
 C         1.942578         0.836871        -1.468982
 O         4.642705         0.353667        -0.766775
 C         4.556430        -1.049612        -0.346854
 C         3.128472        -1.132577        -0.904750
 O         1.897461        -1.452473        -0.224988
 H        -0.717980        -0.582794        -0.475482
 H        -0.288993        -0.398108         1.209194
 H        -0.558468         0.899248         0.466741
 H         2.411108         1.571697         0.941544
 H         2.994643        -0.054272         1.372820
 H         1.688323         1.953188        -1.329042
 H         1.692087         0.734930        -2.566401
 H         5.330009        -1.728248        -0.868621
 H         4.640332        -1.213897         0.702666
 H         2.957958        -1.671511        -1.880710
