19
Iteration:  1294
 C        -0.127525         0.082359         0.251561
 C         1.310638         0.046348        -0.164258
 C         2.457360         0.382797         0.703630
 C         3.301155         0.316361        -0.707383
 C         1.974542         0.922586        -1.248555
 O         4.728514         0.295048        -0.790825
 C         4.596347        -1.073608        -0.408768
 C         3.120502        -1.086780        -1.050478
 O         1.830966        -1.441366        -0.407800
 H        -0.184621        -0.077554         1.338696
 H        -0.526261         0.930193        -0.123777
 H        -0.770540        -0.721239        -0.158254
 H         2.485708         1.410944         1.049128
 H         2.960584        -0.121930         1.485329
 H         1.937638         1.943999        -0.741659
 H         1.822139         0.631612        -2.330783
 H         5.437371        -1.710142        -0.800882
 H         4.546188        -1.148491         0.706801
 H         3.311010        -1.454414        -2.020608
