19
Iteration:  1014charge 0 multiplicity 1
 C        -0.106587         0.135999         0.298699
 C         1.390266        -0.073512        -0.206362
 C         2.617050         0.440738         0.768760
 C         3.214801         0.317111        -0.644021
 C         1.891787         0.886070        -1.335425
 O         4.654440         0.331491        -0.761077
 C         4.631432        -1.136776        -0.338106
 C         3.155884        -1.090432        -0.980256
 O         1.793258        -1.419712        -0.592334
 H        -0.473327        -0.694427         0.994042
 H        -0.080259         1.035738         0.999623
 H        -0.883691         0.208647        -0.370870
 H         2.609840         1.538207         1.087859
 H         3.008868        -0.215131         1.585682
 H         1.681086         1.872275        -1.146365
 H         1.777315         0.501187        -2.339394
 H         5.465222        -1.624271        -0.852495
 H         4.535260        -1.382826         0.717968
 H         3.227440        -1.157543        -2.049822
