19
Iteration:  3956charge 0 multiplicity 1
 C        -0.065708         0.023455         0.261507
 C         1.313169         0.032006        -0.200118
 C         2.532777         0.577867         0.631245
 C         3.224207         0.370437        -0.757712
 C         1.824002         0.735226        -1.455328
 O         4.700056         0.331880        -0.760941
 C         4.622724        -1.089339        -0.266320
 C         3.189806        -1.138815        -0.913117
 O         1.881269        -1.425738        -0.364767
 H        -0.799417         0.137933        -0.524527
 H        -0.403278        -0.857036         0.931607
 H        -0.174145         0.789387         1.104586
 H         2.457664         1.684425         0.774741
 H         2.874262         0.044425         1.580546
 H         1.552691         1.833924        -1.476182
 H         1.466933         0.418714        -2.403938
 H         5.510939        -1.510865        -0.761199
 H         4.727584        -1.177032         0.844282
 H         3.364384        -1.569564        -1.922595
