19
Iteration:  2865
 C        -0.107209        -0.117994         0.075351
 C         1.381900         0.010936        -0.172527
 C         2.581021         0.605404         0.679287
 C         3.228511         0.334130        -0.651746
 C         1.937264         0.960716        -1.333221
 O         4.672532         0.330929        -0.800072
 C         4.612766        -1.140717        -0.453974
 C         3.063302        -1.155577        -0.872597
 O         1.863165        -1.402950        -0.225336
 H        -0.518885        -0.861804         0.712621
 H        -0.251290         0.808226         0.663219
 H        -0.518564        -0.329428        -0.948532
 H         2.544361         1.706331         0.839251
 H         2.971684         0.047582         1.559234
 H         1.571452         1.922025        -1.028762
 H         1.884211         0.799527        -2.410969
 H         5.223273        -1.681909        -1.136563
 H         4.770501        -1.320036         0.642752
 H         2.950959        -1.476720        -1.984486
