19
Iteration:   733
 C        -0.077061         0.041550         0.224956
 C         1.373315        -0.066738        -0.162584
 C         2.632945         0.378154         0.712568
 C         3.189760         0.381647        -0.671992
 C         1.980264         0.957511        -1.342392
 O         4.698792         0.342294        -0.781703
 C         4.580645        -1.117490        -0.378699
 C         3.126652        -1.080166        -0.951946
 O         1.746293        -1.408701        -0.404894
 H        -0.310434        -0.773109         1.030090
 H        -0.207632         1.131334         0.633848
 H        -0.646322        -0.243037        -0.653381
 H         2.395076         1.375253         1.011346
 H         3.059066        -0.219760         1.513876
 H         1.560148         1.944162        -1.232852
 H         1.818785         0.506697        -2.366495
 H         5.257835        -1.555386        -1.077447
 H         4.744514        -1.274585         0.763149
 H         3.096558        -1.337918        -2.054468
