19
Iteration:  1668
 C        -0.015506         0.044081         0.324531
 C         1.355727        -0.021380        -0.213637
 C         2.563817         0.333797         0.719478
 C         3.187961         0.441718        -0.666481
 C         2.010196         0.987884        -1.368816
 O         4.649805         0.283961        -0.796863
 C         4.589747        -1.075588        -0.314012
 C         3.077729        -1.032586        -0.959889
 O         1.801188        -1.453960        -0.499727
 H        -0.070102        -0.433901         1.416279
 H        -0.613760         0.948443         0.193981
 H        -0.643319        -0.699705        -0.204279
 H         2.684207         1.316152         1.208318
 H         2.888828        -0.501687         1.356924
 H         1.733735         2.121125        -1.305541
 H         1.826921         0.748137        -2.487493
 H         5.177606        -1.956216        -0.778729
 H         4.676943        -1.227978         0.780141
 H         3.451841        -1.302469        -1.953472
