19
Iteration:  4274
 C         0.015491        -0.052661         0.347112
 C         1.396772         0.018063        -0.207688
 C         2.477768         0.675889         0.539743
 C         3.188572         0.337241        -0.739098
 C         2.008581         0.810268        -1.423429
 O         4.616004         0.318381        -0.803323
 C         4.561136        -1.087783        -0.272990
 C         3.154353        -1.148468        -0.876087
 O         1.855436        -1.441699        -0.365426
 H        -0.630113        -0.594766        -0.296981
 H         0.123030        -0.470563         1.313485
 H        -0.590441         0.860361         0.245189
 H         2.315457         1.754720         0.760832
 H         2.716854         0.354181         1.542176
 H         1.652772         1.805533        -1.162661
 H         1.778073         0.512797        -2.466612
 H         5.199249        -1.746016        -0.822921
 H         4.695057        -1.076025         0.834513
 H         3.135146        -1.635317        -1.919701
