19
Iteration:    91charge 0 multiplicity 1
 C        -0.148142         0.105038         0.184090
 C         1.337194        -0.058585        -0.094921
 C         2.613504         0.446389         0.777161
 C         3.237475         0.317388        -0.689081
 C         1.891278         0.900820        -1.250963
 O         4.716109         0.324311        -0.863534
 C         4.718095        -1.052418        -0.410232
 C         3.118968        -1.142338        -0.871545
 O         1.756602        -1.408908        -0.502493
 H        -0.194177        -0.101898         1.346164
 H        -0.568793         1.067245        -0.015020
 H        -0.766961        -0.612704        -0.377155
 H         2.688319         1.461103         1.138360
 H         2.826575        -0.387507         1.426615
 H         1.629281         1.921768        -0.884960
 H         1.641226         0.672122        -2.331207
 H         5.248488        -1.717063        -1.146045
 H         5.048646        -1.231309         0.607506
 H         3.231034        -1.489472        -1.905582
