19
Iteration:  4950
 C        -0.153483         0.054861         0.204600
 C         1.337038         0.036928        -0.201223
 C         2.490449         0.508398         0.651837
 C         3.305315         0.309006        -0.737070
 C         1.915217         0.830330        -1.428474
 O         4.702293         0.312811        -0.796861
 C         4.649380        -1.069535        -0.305457
 C         3.170337        -1.110075        -0.936648
 O         1.861418        -1.413611        -0.270514
 H        -0.732452        -0.504069        -0.557723
 H        -0.369922        -0.456837         1.121406
 H        -0.585628         1.043190         0.204090
 H         2.446203         1.497869         1.070683
 H         2.544447        -0.104641         1.568808
 H         1.592652         1.863802        -1.323468
 H         1.727924         0.334003        -2.345531
 H         5.534699        -1.566493        -0.729174
 H         4.601709        -1.272944         0.802802
 H         3.224432        -1.514138        -1.963820
