19
Iteration:  4254
 C        -0.096951        -0.092610         0.427502
 C         1.376683        -0.015949        -0.207766
 C         2.501439         0.659860         0.637685
 C         3.224947         0.370309        -0.757040
 C         1.874597         0.778863        -1.527405
 O         4.772437         0.279597        -0.839840
 C         4.620262        -1.069123        -0.225482
 C         3.172353        -1.134161        -0.843788
 O         1.760891        -1.392529        -0.452608
 H        -0.829111        -0.294651        -0.368145
 H        -0.065521        -0.817893         1.236133
 H        -0.406681         0.899761         0.749636
 H         2.465589         1.792990         0.685098
 H         2.942063         0.521629         1.624591
 H         1.781942         1.868791        -1.555791
 H         1.784971         0.280022        -2.466952
 H         5.562254        -1.620375        -0.499387
 H         4.489784        -0.997707         0.891037
 H         3.228695        -1.372830        -1.927679
