19
Iteration:  4907
 C        -0.058681        -0.042825         0.327565
 C         1.403478        -0.024503        -0.134800
 C         2.511150         0.637073         0.591941
 C         3.228870         0.431099        -0.704920
 C         1.982123         0.822538        -1.533861
 O         4.697141         0.288819        -0.750859
 C         4.534703        -1.119085        -0.217063
 C         3.113060        -1.128951        -0.936614
 O         1.822542        -1.404088        -0.434090
 H        -0.843265        -0.008419        -0.485132
 H        -0.111931        -1.025994         0.763037
 H        -0.275829         0.625664         1.144072
 H         2.355752         1.701088         0.635235
 H         2.926042         0.276366         1.553845
 H         1.553525         1.812691        -1.638331
 H         2.052015         0.252446        -2.426518
 H         5.340142        -1.803706        -0.420023
 H         4.583101        -1.053953         0.892085
 H         3.098011        -1.410694        -2.027944
