19
Iteration:  2335
 C        -0.096186         0.032168         0.291637
 C         1.362617         0.034801        -0.241109
 C         2.497061         0.454034         0.689549
 C         3.245963         0.418556        -0.685669
 C         1.871175         0.896947        -1.425377
 O         4.775062         0.270694        -0.702830
 C         4.605439        -1.206855        -0.390250
 C         3.163687        -1.032852        -0.941136
 O         1.852269        -1.388976        -0.402959
 H        -0.008070         0.042710         1.339074
 H        -0.765221         0.867870        -0.117128
 H        -0.816977        -0.838847         0.034916
 H         2.294558         1.446011         1.112462
 H         2.717493        -0.299807         1.440244
 H         1.624514         1.929549        -1.177939
 H         1.610313         0.672483        -2.504898
 H         5.098348        -1.977701        -0.982860
 H         4.750672        -1.336972         0.692121
 H         3.237101        -1.347608        -1.974917
