19
Iteration:  3296charge 0 multiplicity 1
 C        -0.015787         0.029456         0.343194
 C         1.380018        -0.044351        -0.244049
 C         2.460049         0.675929         0.599638
 C         3.185452         0.323415        -0.753795
 C         1.933926         0.793833        -1.480393
 O         4.645835         0.311601        -0.844858
 C         4.620304        -1.056588        -0.240810
 C         3.200136        -1.170515        -0.852234
 O         1.868894        -1.444804        -0.348058
 H        -0.699795         0.291468        -0.414433
 H        -0.373328        -1.036024         0.467207
 H        -0.194291         0.535208         1.281860
 H         2.223585         1.761125         0.718138
 H         2.631164         0.424758         1.646056
 H         1.598240         1.796335        -1.256826
 H         1.745599         0.353866        -2.485142
 H         5.425118        -1.653145        -0.605242
 H         4.651516        -1.014888         0.915753
 H         3.159797        -1.520548        -1.903975
