19
Iteration:  4027
 C        -0.173373        -0.051811         0.100307
 C         1.324990        -0.008753        -0.124696
 C         2.503696         0.651216         0.728102
 C         3.263293         0.353285        -0.679086
 C         1.882965         0.766173        -1.368374
 O         4.756415         0.299818        -0.883678
 C         4.703458        -1.116645        -0.422533
 C         3.140991        -1.058770        -0.863290
 O         1.869966        -1.375204        -0.217014
 H        -0.786276        -0.250555        -0.816348
 H        -0.500500        -0.799752         0.794003
 H        -0.631669         0.730557         0.683380
 H         2.475394         1.731078         0.971446
 H         2.773270         0.042970         1.589482
 H         1.502666         1.782639        -1.570083
 H         1.630301         0.307217        -2.386585
 H         5.236256        -1.918969        -0.978949
 H         5.011038        -1.101839         0.579720
 H         3.091861        -1.306504        -1.953201
