19
Iteration:  1548
 C        -0.145374         0.063065         0.195779
 C         1.394439        -0.068604        -0.136115
 C         2.590579         0.433359         0.788632
 C         3.260535         0.411803        -0.654239
 C         1.882931         0.909447        -1.251608
 O         4.740901         0.296519        -0.849727
 C         4.627441        -1.076762        -0.436636
 C         3.109203        -1.141975        -0.927914
 O         1.781161        -1.389209        -0.438575
 H        -0.398870        -0.896541         0.712571
 H        -0.424762         1.011041         0.574838
 H        -0.613420        -0.010506        -0.779020
 H         2.530055         1.386006         1.252611
 H         2.929003        -0.411339         1.359845
 H         1.694360         2.024521        -1.146713
 H         1.617670         0.672495        -2.357272
 H         5.401167        -1.773292        -0.881690
 H         4.722435        -1.090127         0.666525
 H         3.121981        -1.368788        -1.983056
