19
Iteration:  3409
 C         0.010563        -0.046133         0.290994
 C         1.341126        -0.005905        -0.192726
 C         2.503708         0.678297         0.559593
 C         3.226640         0.335827        -0.716652
 C         1.891258         0.788186        -1.383328
 O         4.744084         0.366516        -0.781818
 C         4.628338        -1.044708        -0.270349
 C         3.064979        -1.200873        -0.919220
 O         1.783596        -1.447468        -0.385631
 H        -0.561680        -0.796763        -0.316690
 H        -0.118683        -0.405644         1.268385
 H        -0.392313         0.960628         0.290016
 H         2.484335         1.756416         0.691557
 H         2.789841         0.168789         1.522653
 H         1.652250         1.863096        -1.260133
 H         1.789411         0.486277        -2.386716
 H         5.544685        -1.597626        -0.650544
 H         4.760967        -1.121009         0.799766
 H         3.174850        -1.651464        -1.960543
