19
Iteration:   839charge 0 multiplicity 1
 C        -0.060983        -0.042371         0.290554
 C         1.340455        -0.024163        -0.181197
 C         2.535754         0.515508         0.659048
 C         3.217315         0.361462        -0.643586
 C         1.927120         0.977334        -1.270410
 O         4.780744         0.244269        -0.715609
 C         4.507236        -1.151241        -0.414407
 C         3.120264        -1.075546        -1.047307
 O         1.842860        -1.383126        -0.462537
 H        -0.025468        -0.500247         1.302004
 H        -0.615407         0.883244         0.299624
 H        -0.618430        -0.656728        -0.379883
 H         2.380132         1.675882         0.760291
 H         2.790278        -0.007406         1.638320
 H         1.792344         2.063140        -1.108623
 H         1.738009         0.856949        -2.327034
 H         5.354453        -1.771049        -0.832488
 H         4.607161        -1.328544         0.620460
 H         3.144735        -1.304174        -2.095669
