19
Iteration:   317
 C        -0.106872        -0.008724         0.192459
 C         1.412985         0.026418        -0.129618
 C         2.546419         0.512788         0.745982
 C         3.276387         0.382772        -0.647007
 C         1.963755         0.874429        -1.250437
 O         4.739791         0.332324        -0.735354
 C         4.509980        -1.220504        -0.526597
 C         3.090126        -1.071482        -0.970260
 O         1.831950        -1.382078        -0.428356
 H        -0.461895        -0.488608         1.193590
 H        -0.439615         1.003704         0.129062
 H        -0.669032        -0.613980        -0.523100
 H         2.309574         1.508901         1.075910
 H         2.780339        -0.161652         1.569245
 H         1.804749         1.906686        -1.003658
 H         1.828775         0.491512        -2.319978
 H         5.260733        -1.752821        -1.191265
 H         4.642926        -1.434652         0.519340
 H         3.055898        -1.184439        -2.061393
