19
Iteration:  2960
 C        -0.081687         0.014710         0.292405
 C         1.357735         0.021459        -0.170405
 C         2.576623         0.505391         0.652650
 C         3.214254         0.282088        -0.763269
 C         1.924511         0.805832        -1.379797
 O         4.706939         0.375416        -0.799331
 C         4.601763        -1.046683        -0.261570
 C         3.170138        -1.182189        -0.914626
 O         1.763111        -1.370750        -0.478957
 H        -0.229325        -0.790963         0.977050
 H        -0.289808         0.866156         1.047512
 H        -0.643165        -0.283353        -0.577300
 H         2.406592         1.586352         0.966173
 H         2.971170        -0.101387         1.421211
 H         1.673554         1.855905        -1.090869
 H         1.619767         0.457552        -2.492215
 H         5.490373        -1.615870        -0.500261
 H         4.539270        -0.968404         0.900614
 H         3.347444        -1.462068        -1.932368
