19
Iteration:  2544charge 0 multiplicity 1
 C        -0.186221         0.149682         0.137074
 C         1.290452         0.092375        -0.112192
 C         2.487832         0.514134         0.729718
 C         3.195397         0.234051        -0.697408
 C         1.901220         0.845601        -1.322475
 O         4.722839         0.345555        -0.776762
 C         4.718220        -1.090099        -0.445063
 C         3.199623        -1.191110        -0.931238
 O         1.876619        -1.490039        -0.307347
 H        -0.429862         0.189352         1.262392
 H        -0.679927         0.910289        -0.410426
 H        -0.568607        -0.830501        -0.307229
 H         2.424990         1.574522         0.757707
 H         2.825224        -0.116783         1.560035
 H         1.763593         1.929423        -0.996386
 H         1.756217         0.693235        -2.399936
 H         5.361037        -1.691783        -1.186965
 H         5.028222        -0.994213         0.563575
 H         3.219449        -1.587510        -2.049994
