19
Iteration:   469
 C        -0.153958         0.060994         0.175381
 C         1.399092        -0.051285        -0.008961
 C         2.548832         0.439550         0.797738
 C         3.215936         0.336061        -0.631520
 C         2.066523         0.941264        -1.304372
 O         4.652592         0.283263        -0.828663
 C         4.632429        -1.142479        -0.503448
 C         3.090139        -1.003413        -0.965265
 O         1.830162        -1.437391        -0.463556
 H        -0.341935         0.012207         1.303843
 H        -0.609798         1.043889        -0.018083
 H        -0.656313        -0.641289        -0.452906
 H         2.353935         1.433892         1.154952
 H         2.762284        -0.138407         1.682587
 H         1.841146         2.035559        -1.183023
 H         1.888027         0.682434        -2.388443
 H         5.398245        -1.844841        -0.898406
 H         4.516227        -1.431637         0.557767
 H         3.107540        -1.233188        -2.058861
