19
Iteration:  2799
 C        -0.037067         0.029554         0.369885
 C         1.346967        -0.026736        -0.159872
 C         2.484805         0.473623         0.550262
 C         3.261013         0.355009        -0.716467
 C         1.937551         0.906810        -1.433371
 O         4.691986         0.404907        -0.665385
 C         4.666870        -1.068375        -0.322209
 C         3.091938        -1.198579        -0.962232
 O         1.776332        -1.484482        -0.475928
 H        -0.111299         0.290811         1.380434
 H        -0.454581         0.919290        -0.201121
 H        -0.649327        -0.866628         0.146179
 H         2.479837         1.451841         1.047693
 H         2.834531        -0.078581         1.419454
 H         1.832370         1.886309        -1.093845
 H         1.801698         0.710608        -2.488301
 H         5.461861        -1.449822        -0.876501
 H         4.754573        -1.204906         0.781356
 H         3.097894        -1.620260        -2.028216
