19
Iteration:  4053charge 0 multiplicity 1
 C        -0.032702        -0.014953         0.228248
 C         1.394864        -0.050459        -0.166403
 C         2.517133         0.576855         0.588075
 C         3.258568         0.357790        -0.764918
 C         1.953182         0.847244        -1.465546
 O         4.616024         0.362110        -0.749115
 C         4.564933        -1.053533        -0.342646
 C         3.112063        -1.134183        -0.917902
 O         1.890578        -1.456025        -0.239681
 H        -0.667210        -0.619806        -0.365902
 H        -0.227905        -0.418445         1.252150
 H        -0.559497         0.930368         0.370625
 H         2.374675         1.608637         0.859400
 H         2.944033        -0.068314         1.384094
 H         1.668022         1.942347        -1.333073
 H         1.669515         0.744617        -2.495001
 H         5.318114        -1.755466        -0.824591
 H         4.684861        -1.143336         0.809804
 H         3.045016        -1.638965        -2.000297
