19
Iteration:  2992
 C        -0.105102        -0.032903         0.226341
 C         1.349033        -0.064263        -0.194059
 C         2.447368         0.582698         0.693338
 C         3.201686         0.422814        -0.623284
 C         1.950546         0.872900        -1.407782
 O         4.765186         0.278845        -0.802957
 C         4.585804        -1.187819        -0.448395
 C         3.155205        -1.051406        -0.903934
 O         1.883531        -1.388063        -0.324004
 H        -0.064053        -0.375200         1.259714
 H        -0.668866         0.944380         0.020938
 H        -0.671850        -0.713422        -0.388287
 H         2.197697         1.606873         1.104975
 H         2.780144         0.045948         1.561609
 H         1.612558         1.881010        -1.153394
 H         1.827191         0.441140        -2.487477
 H         5.327693        -1.772467        -0.956681
 H         4.759038        -1.174684         0.658385
 H         3.080848        -1.217015        -1.953852
