19
Iteration:  1947charge 0 multiplicity 1
 C        -0.091946         0.005509         0.272111
 C         1.363733        -0.004782        -0.135251
 C         2.506111         0.511040         0.732074
 C         3.303422         0.352048        -0.698436
 C         1.889170         0.861385        -1.370016
 O         4.758560         0.293093        -0.747034
 C         4.635718        -1.122392        -0.393172
 C         3.135064        -1.082835        -0.947869
 O         1.750247        -1.379744        -0.478154
 H        -0.316007        -0.623854         1.196032
 H        -0.285272         1.031661         0.487575
 H        -0.774527        -0.252674        -0.602209
 H         2.267980         1.525023         1.056136
 H         2.971806         0.010837         1.541129
 H         1.653850         1.899880        -1.123614
 H         1.721100         0.579590        -2.474907
 H         5.283995        -1.815746        -0.978227
 H         4.750261        -1.421768         0.673632
 H         3.260403        -1.361892        -1.947176
