19
Iteration:  2450
 C        -0.055067         0.062450         0.342776
 C         1.381830        -0.006960        -0.198447
 C         2.456955         0.536112         0.652116
 C         3.250888         0.392751        -0.709677
 C         1.909719         0.785716        -1.449087
 O         4.772588         0.352532        -0.740974
 C         4.650445        -1.091323        -0.307473
 C         3.166680        -1.153934        -0.965525
 O         1.706799        -1.432488        -0.425240
 H        -0.302379        -0.946712         0.763248
 H        -0.137166         0.897417         1.054609
 H        -0.528319         0.296355        -0.550509
 H         2.447999         1.628516         0.967063
 H         2.723916        -0.230819         1.439326
 H         1.515850         1.814068        -1.305448
 H         1.859268         0.473264        -2.488606
 H         5.340003        -1.791044        -0.776390
 H         4.585010        -1.095374         0.826201
 H         3.255945        -1.638551        -1.908099
