19
Iteration:  1185charge 0 multiplicity 1
 C        -0.129491         0.046713         0.287581
 C         1.332756         0.022077        -0.093589
 C         2.623210         0.501241         0.701420
 C         3.267479         0.339651        -0.689520
 C         1.911697         0.874284        -1.316784
 O         4.728205         0.268070        -0.764310
 C         4.573097        -1.131705        -0.318195
 C         3.181779        -1.093858        -1.036139
 O         1.769489        -1.388272        -0.530534
 H        -0.390238        -0.899821         0.826856
 H        -0.403202         0.718120         1.078648
 H        -0.795366         0.035798        -0.636775
 H         2.429167         1.515464         0.999441
 H         2.916182        -0.108671         1.510024
 H         1.716762         2.038589        -1.239092
 H         1.650880         0.531045        -2.383740
 H         5.345688        -1.810979        -0.762238
 H         4.591618        -1.229668         0.785322
 H         3.419053        -1.144184        -2.142066
