19
Iteration:   813
 C        -0.089667        -0.069005         0.213637
 C         1.330304         0.102189        -0.131924
 C         2.519673         0.547433         0.750497
 C         3.250900         0.372449        -0.737539
 C         1.998587         0.962210        -1.307507
 O         4.708323         0.325472        -0.702255
 C         4.551391        -1.250117        -0.496736
 C         3.075067        -1.090410        -0.970465
 O         1.880271        -1.434691        -0.398425
 H        -0.102258        -0.883023         0.920321
 H        -0.464689         0.808354         0.781259
 H        -0.840836        -0.193037        -0.748663
 H         2.481982         1.665673         1.033195
 H         2.783431        -0.223525         1.528168
 H         1.652247         2.042219        -1.252552
 H         1.693733         0.618164        -2.329029
 H         5.357105        -1.865771        -0.970361
 H         4.901089        -1.321999         0.606206
 H         3.056717        -1.370473        -2.054519
