19
Iteration:  4003
 C        -0.054703        -0.036760         0.066834
 C         1.378343        -0.043400        -0.113604
 C         2.515361         0.769454         0.738737
 C         3.178351         0.284758        -0.644280
 C         1.977556         0.805153        -1.312671
 O         4.625623         0.321240        -0.920384
 C         4.677733        -1.096863        -0.455115
 C         3.144387        -1.161410        -0.780333
 O         1.846530        -1.448274        -0.267739
 H        -0.549040         0.125554        -0.933056
 H        -0.524010        -0.945657         0.432448
 H        -0.506189         0.605112         0.836421
 H         2.245881         1.880517         0.734043
 H         2.756309         0.426971         1.736095
 H         1.630557         1.773865        -1.365420
 H         1.790458         0.421297        -2.350199
 H         5.272052        -1.716691        -1.041598
 H         4.996515        -1.107787         0.551215
 H         3.100184        -1.262543        -1.838095
