19
Iteration:  3592charge 0 multiplicity 1
 C        -0.036089         0.031069         0.366127
 C         1.401761        -0.056913        -0.260703
 C         2.645531         0.547146         0.647804
 C         3.186281         0.380593        -0.748618
 C         1.950074         0.730113        -1.542622
 O         4.637731         0.357066        -0.791139
 C         4.538788        -0.993126        -0.216068
 C         3.094791        -1.095956        -0.874781
 O         1.820057        -1.472050        -0.419873
 H        -0.937008        -0.060090        -0.341523
 H        -0.076703        -0.749397         1.086715
 H        -0.074997         0.997083         0.954534
 H         2.623900         1.601550         0.967370
 H         3.056883         0.008463         1.520400
 H         1.474287         1.749751        -1.470847
 H         1.861538         0.223204        -2.494918
 H         5.467954        -1.565739        -0.464636
 H         4.374957        -1.137307         0.828294
 H         3.097580        -1.320222        -1.929840
