19
Iteration:  3891
 C        -0.126881        -0.085064         0.279960
 C         1.353302         0.079488        -0.241131
 C         2.527904         0.564125         0.627223
 C         3.231340         0.329168        -0.796363
 C         1.878766         0.852521        -1.454674
 O         4.758214         0.337028        -0.780578
 C         4.604944        -1.088455        -0.287948
 C         3.106347        -1.127242        -0.866940
 O         1.863022        -1.420525        -0.278458
 H        -0.452330        -1.029790        -0.144030
 H         0.036086        -0.069732         1.424069
 H        -0.604262         0.779520        -0.262933
 H         2.546914         1.658163         0.875116
 H         2.798771        -0.121394         1.509551
 H         1.666468         1.960680        -1.318652
 H         1.618229         0.683749        -2.471181
 H         5.291573        -1.589393        -0.913025
 H         4.667761        -1.365145         0.769160
 H         3.152482        -1.440086        -1.902058
