19
Iteration:   874charge 0 multiplicity 1
 C        -0.066592         0.096985         0.310196
 C         1.305352         0.022293        -0.169305
 C         2.558732         0.354119         0.752214
 C         3.179881         0.294335        -0.640538
 C         1.972558         0.934132        -1.333764
 O         4.656855         0.301897        -0.748804
 C         4.652357        -1.094355        -0.395113
 C         3.118512        -1.090491        -0.963247
 O         1.833572        -1.376040        -0.566866
 H        -0.159484        -0.127784         1.407434
 H        -0.642752         1.035367         0.041737
 H        -0.470498        -0.731532        -0.093203
 H         2.540896         1.408111         1.144813
 H         2.950455        -0.335615         1.498185
 H         1.779391         1.978342        -1.377086
 H         1.915785         0.277707        -2.227540
 H         5.237228        -1.772434        -0.963101
 H         4.690834        -1.139554         0.676864
 H         3.227441        -1.184871        -2.047048
