19
Iteration:  4823charge 0 multiplicity 1
 C        -0.116628         0.065374         0.043205
 C         1.375018        -0.049410        -0.121907
 C         2.472343         0.552415         0.798180
 C         3.208661         0.341529        -0.667537
 C         1.881872         0.861634        -1.431053
 O         4.686899         0.290955        -0.872524
 C         4.635259        -1.101951        -0.409622
 C         3.182856        -1.116233        -0.858078
 O         1.917771        -1.448817        -0.212948
 H        -0.689753        -0.325069        -0.768994
 H        -0.511039        -0.393972         0.957537
 H        -0.320674         1.160436         0.300174
 H         2.401008         1.596466         1.088881
 H         2.615346        -0.210506         1.517272
 H         1.692811         1.975162        -1.507227
 H         1.625259         0.495146        -2.436063
 H         5.417277        -1.572149        -1.036367
 H         4.751615        -1.057947         0.652821
 H         3.244232        -1.363972        -1.891334
