19
Iteration:   588
 C        -0.114586         0.040695         0.167194
 C         1.439389         0.033572        -0.075496
 C         2.606044         0.473664         0.782053
 C         3.229770         0.324549        -0.697137
 C         1.979149         0.919342        -1.311533
 O         4.687500         0.397154        -0.766738
 C         4.533761        -1.135166        -0.463766
 C         3.083435        -1.220037        -1.017895
 O         1.849538        -1.410446        -0.370202
 H        -0.400403        -1.028496         0.613837
 H        -0.419005         0.748209         0.977119
 H        -0.679668         0.128627        -0.873144
 H         2.664472         1.559019         1.012119
 H         2.602077        -0.128776         1.704113
 H         1.677352         1.998430        -1.267503
 H         1.663421         0.506745        -2.257545
 H         5.274582        -1.809659        -1.094341
 H         4.520077        -1.191785         0.664240
 H         2.995600        -1.382463        -2.145450
