19
Iteration:  2142charge 0 multiplicity 1
 C        -0.067989         0.006296         0.293472
 C         1.387024        -0.022024        -0.214046
 C         2.533710         0.484326         0.721235
 C         3.301699         0.347815        -0.738415
 C         1.868206         0.950137        -1.337619
 O         4.766735         0.281895        -0.753411
 C         4.561365        -1.110400        -0.281673
 C         3.134244        -1.123950        -1.017477
 O         1.803649        -1.356878        -0.473423
 H        -0.130008        -0.527748         1.312661
 H        -0.609366         0.900464         0.304917
 H        -0.711513        -0.674967        -0.387481
 H         2.726813         1.563945         0.977577
 H         2.682162        -0.220728         1.597939
 H         1.532582         1.959298        -1.159182
 H         1.739027         0.672972        -2.431612
 H         5.344635        -1.820547        -0.606695
 H         4.291318        -1.166415         0.781870
 H         2.964768        -1.446128        -2.130797
