19
Iteration:  4796charge 0 multiplicity 1
 C        -0.149123        -0.039703         0.174146
 C         1.358094        -0.032061        -0.209100
 C         2.543529         0.602048         0.643845
 C         3.270846         0.286431        -0.612728
 C         1.987864         0.907033        -1.380049
 O         4.698958         0.397805        -0.837730
 C         4.588771        -1.137849        -0.409405
 C         3.156717        -1.158149        -0.825571
 O         1.777478        -1.425152        -0.281321
 H        -0.590443        -0.948476        -0.325389
 H        -0.245448        -0.161078         1.283496
 H        -0.697744         0.830642        -0.111702
 H         2.401010         1.699375         0.557679
 H         2.737259         0.113994         1.640823
 H         1.847031         1.977754        -1.283562
 H         1.901099         0.589313        -2.437967
 H         5.378992        -1.650572        -0.997375
 H         4.899014        -1.281083         0.674981
 H         3.232864        -1.441244        -1.924298
