19
Iteration:  1217charge 0 multiplicity 1
 C        -0.077091        -0.038283         0.219836
 C         1.400734         0.023861        -0.183393
 C         2.548298         0.556225         0.694213
 C         3.217388         0.358338        -0.633285
 C         2.000002         0.993521        -1.344162
 O         4.669679         0.214947        -0.728844
 C         4.558626        -1.187611        -0.463043
 C         3.073831        -1.078512        -0.996306
 O         1.863137        -1.396519        -0.329819
 H        -0.043680        -0.894941         0.891709
 H        -0.586420         0.776161         0.597573
 H        -0.819804        -0.255252        -0.599364
 H         2.355400         1.586237         0.991387
 H         2.698415        -0.128637         1.485039
 H         1.679151         2.113058        -1.149566
 H         1.857087         0.915808        -2.481698
 H         5.297859        -1.696828        -1.145836
 H         4.690974        -1.415754         0.616161
 H         3.255675        -1.203841        -2.047291
