19
Iteration:  1138
 C         0.020302         0.109605         0.261193
 C         1.376606        -0.067835        -0.240612
 C         2.557201         0.380856         0.720939
 C         3.216423         0.360399        -0.603237
 C         2.058963         0.906463        -1.361363
 O         4.658232         0.365971        -0.720007
 C         4.596872        -1.073313        -0.465043
 C         3.106967        -1.106460        -0.960180
 O         1.673296        -1.447316        -0.437140
 H        -0.268180        -0.490776         1.084723
 H        -0.200591         1.032801         0.728088
 H        -0.637147        -0.285963        -0.568896
 H         2.521031         1.441141         1.067655
 H         2.814105        -0.396573         1.506389
 H         1.635441         1.941316        -1.139089
 H         1.991296         0.634285        -2.443046
 H         5.507259        -1.542449        -0.866857
 H         4.568031        -1.311245         0.625739
 H         3.127736        -1.413482        -1.962502
