19
Iteration:  1147
 C        -0.017677         0.117938         0.324453
 C         1.423383        -0.059762        -0.230234
 C         2.493536         0.357659         0.673275
 C         3.233367         0.350294        -0.659131
 C         2.006612         0.886784        -1.341435
 O         4.668623         0.339617        -0.732549
 C         4.626290        -1.058678        -0.390034
 C         3.202152        -1.093898        -0.977432
 O         1.649530        -1.451109        -0.452644
 H        -0.098233        -0.755786         0.951511
 H        -0.290709         1.171993         0.586943
 H        -0.708168         0.149746        -0.463762
 H         2.318976         1.428619         1.002748
 H         2.835907        -0.344822         1.536580
 H         1.859079         1.890832        -1.049687
 H         1.834709         0.827022        -2.389240
 H         5.336270        -1.662551        -0.950850
 H         4.678817        -1.152269         0.697089
 H         3.095605        -1.353428        -2.013113
