19
Iteration:  4947
 C        -0.144828         0.065954         0.188985
 C         1.311194         0.012584        -0.196257
 C         2.498147         0.516838         0.645271
 C         3.298229         0.294287        -0.744291
 C         1.883563         0.854086        -1.415214
 O         4.721098         0.316172        -0.786169
 C         4.666799        -1.082250        -0.284111
 C         3.166630        -1.140983        -0.947217
 O         1.872770        -1.392493        -0.277882
 H        -0.800420        -0.472076        -0.538218
 H        -0.232293        -0.558280         1.117085
 H        -0.550013         1.009920         0.296057
 H         2.520162         1.528359         1.036887
 H         2.577565        -0.063384         1.609520
 H         1.478666         1.840752        -1.387148
 H         1.734815         0.362025        -2.402133
 H         5.469458        -1.564166        -0.787918
 H         4.457629        -1.184346         0.788755
 H         3.261125        -1.498159        -1.932826
