19
Iteration:  4130
 C        -0.035941        -0.064419         0.228264
 C         1.377711         0.036230        -0.186240
 C         2.536007         0.642880         0.607662
 C         3.218761         0.364478        -0.741836
 C         1.978589         0.812912        -1.362655
 O         4.619483         0.353304        -0.811341
 C         4.588375        -1.104609        -0.298927
 C         3.080043        -1.141041        -0.934229
 O         1.882800        -1.461913        -0.284694
 H        -0.567099        -0.841432        -0.205703
 H        -0.118895        -0.266295         1.250126
 H        -0.548601         0.785347        -0.135235
 H         2.442141         1.687613         0.539652
 H         2.857968         0.180680         1.497984
 H         1.738630         1.830978        -1.077341
 H         1.752328         0.636132        -2.400086
 H         5.425313        -1.577897        -0.751165
 H         4.494427        -1.297631         0.817145
 H         3.133872        -1.533169        -2.000656
