19
Iteration:  3703
 C        -0.180245         0.081547         0.147854
 C         1.372894        -0.080897        -0.104405
 C         2.512078         0.571263         0.707810
 C         3.193723         0.396290        -0.728233
 C         1.845114         0.808560        -1.381198
 O         4.804777         0.340973        -0.920198
 C         4.668819        -1.107085        -0.353041
 C         3.167396        -1.134110        -0.832465
 O         1.868927        -1.434058        -0.257670
 H        -0.890164        -0.537924        -0.552136
 H        -0.522157        -0.256115         1.153061
 H        -0.627972         1.029989        -0.073540
 H         2.438093         1.595195         1.114566
 H         2.820069        -0.086085         1.519935
 H         1.587128         1.818875        -1.398610
 H         1.635588         0.511541        -2.444795
 H         5.298857        -1.753117        -1.074043
 H         4.903170        -1.227516         0.657386
 H         3.197878        -1.607480        -1.787413
