19
Iteration:  4068charge 0 multiplicity 1
 C         0.014005        -0.022171         0.345807
 C         1.386708        -0.028080        -0.192183
 C         2.489262         0.600644         0.608481
 C         3.137496         0.308746        -0.756557
 C         1.922237         0.841817        -1.432792
 O         4.652501         0.369838        -0.752774
 C         4.595082        -1.076774        -0.280537
 C         3.185589        -1.182246        -0.935450
 O         1.839612        -1.449891        -0.411791
 H        -0.618782        -0.777733        -0.238054
 H         0.026359        -0.021203         1.486990
 H        -0.288181         1.052562         0.089091
 H         2.417910         1.751393         0.665365
 H         2.719573         0.362230         1.642076
 H         1.724334         1.844211        -1.260752
 H         1.751388         0.424356        -2.446071
 H         5.414980        -1.518660        -0.732463
 H         4.592364        -1.188941         0.842745
 H         3.188441        -1.532005        -1.959400
