19
Iteration:  3014
 C        -0.087583        -0.097748         0.131138
 C         1.376919         0.050802        -0.097316
 C         2.506345         0.656529         0.717975
 C         3.235934         0.315665        -0.657392
 C         2.027247         0.888757        -1.307150
 O         4.661077         0.358212        -0.718062
 C         4.560860        -1.146301        -0.538127
 C         3.089634        -1.160145        -0.997181
 O         1.866466        -1.472935        -0.276655
 H        -0.275291        -0.018827         1.204059
 H        -0.527024         0.813108        -0.458742
 H        -0.512090        -0.926464        -0.407666
 H         2.431639         1.808699         0.722061
 H         2.724184         0.542717         1.765389
 H         1.780689         1.934843        -1.124191
 H         1.925004         0.284560        -2.304311
 H         5.301851        -1.468213        -1.238484
 H         4.771424        -1.480595         0.530273
 H         2.996121        -1.325245        -2.045851
