19
Iteration:  3839
 C        -0.177577         0.050220         0.079671
 C         1.340500         0.046240        -0.166389
 C         2.397479         0.513328         0.742124
 C         3.231224         0.386824        -0.688659
 C         1.943308         0.777450        -1.382395
 O         4.704386         0.338922        -0.901977
 C         4.672692        -1.129212        -0.494952
 C         3.169805        -1.110430        -0.814401
 O         1.912102        -1.445575        -0.126090
 H        -0.405155        -0.830696        -0.458118
 H        -0.321448         0.113323         1.199206
 H        -0.426939         1.141500        -0.247342
 H         2.296857         1.582056         1.044033
 H         2.789044        -0.191245         1.523385
 H         1.559039         1.845970        -1.361556
 H         1.741772         0.501103        -2.429552
 H         5.310945        -1.686790        -1.143972
 H         5.064851        -1.190227         0.600915
 H         3.167695        -1.568584        -1.829787
