19
Iteration:  3547charge 0 multiplicity 1
 C        -0.174288        -0.055435         0.185483
 C         1.335781        -0.028105        -0.135879
 C         2.543452         0.761047         0.653373
 C         3.265874         0.328763        -0.656500
 C         1.934698         0.820009        -1.411372
 O         4.678078         0.328057        -0.888728
 C         4.689188        -1.092875        -0.354625
 C         3.162338        -1.151235        -0.885138
 O         1.804809        -1.512001        -0.277944
 H        -0.746477        -0.075131        -0.733003
 H        -0.450340        -0.895477         0.835811
 H        -0.339039         0.929191         0.768521
 H         2.432744         1.801412         0.888707
 H         2.828296         0.149757         1.515231
 H         1.692775         1.913869        -1.168451
 H         1.769797         0.612948        -2.457462
 H         5.504592        -1.620171        -0.780639
 H         4.958514        -0.940302         0.673127
 H         3.106256        -1.501803        -1.878515
