19
Iteration:  4220charge 0 multiplicity 1
 C        -0.024864         0.002152         0.254970
 C         1.347999        -0.013261        -0.202534
 C         2.556526         0.588226         0.671175
 C         3.261918         0.324854        -0.810287
 C         1.862768         0.787392        -1.504809
 O         4.678358         0.387313        -0.815557
 C         4.571219        -1.054363        -0.279894
 C         3.162179        -1.155673        -0.850862
 O         1.864071        -1.458654        -0.276085
 H        -0.765465         0.207897        -0.486078
 H        -0.392962        -0.876406         0.711616
 H        -0.100002         0.814825         0.960300
 H         2.369380         1.668989         0.684047
 H         2.923132         0.043135         1.509313
 H         1.545138         1.800003        -1.382162
 H         1.545331         0.487290        -2.501479
 H         5.418097        -1.600610        -0.644787
 H         4.457397        -1.069842         0.847179
 H         3.041879        -1.662888        -1.824481
