19
Iteration:  1900
 C        -0.065743         0.051670         0.096011
 C         1.397961        -0.115889        -0.059080
 C         2.551628         0.520841         0.698225
 C         3.207906         0.327043        -0.631898
 C         2.008612         1.003914        -1.235132
 O         4.656063         0.307526        -0.826781
 C         4.583346        -1.108113        -0.476453
 C         3.063945        -1.119380        -0.928276
 O         1.824533        -1.456917        -0.365291
 H        -0.328712        -0.047521         1.114084
 H        -0.500807         1.071870        -0.402530
 H        -0.402006        -0.875979        -0.493024
 H         2.496316         1.542438         0.956193
 H         2.694830         0.013770         1.648132
 H         1.736358         2.001557        -0.780480
 H         1.853111         0.870931        -2.335984
 H         5.271495        -1.678395        -1.044226
 H         4.856255        -1.404160         0.592852
 H         3.228525        -1.405542        -1.999468
