19
Iteration:  2075charge 0 multiplicity 1
 C        -0.141311         0.090349         0.132103
 C         1.355803         0.028487        -0.128048
 C         2.519033         0.514556         0.770174
 C         3.242903         0.332692        -0.611731
 C         1.916740         0.875325        -1.322860
 O         4.685894         0.302292        -0.750014
 C         4.674020        -1.216868        -0.547802
 C         3.109283        -1.073564        -0.889189
 O         1.880638        -1.414211        -0.355280
 H        -0.310028        -0.097520         1.151455
 H        -0.602687         1.025062        -0.232775
 H        -0.602777        -0.775699        -0.461580
 H         2.474601         1.601170         0.985351
 H         2.523515        -0.203137         1.591496
 H         1.662313         1.887854        -1.202544
 H         1.756700         0.549811        -2.361788
 H         5.332658        -1.498447        -1.317788
 H         5.028323        -1.520958         0.449515
 H         3.126869        -1.365427        -1.999332
