19
Iteration:  3704charge 0 multiplicity 1
 C        -0.174137         0.082100         0.155299
 C         1.366648        -0.074260        -0.108189
 C         2.521030         0.574149         0.707155
 C         3.190270         0.393358        -0.732673
 C         1.848596         0.808006        -1.387780
 O         4.807814         0.348059        -0.918827
 C         4.660653        -1.102848        -0.357487
 C         3.167361        -1.142772        -0.818078
 O         1.864730        -1.436544        -0.268966
 H        -0.864399        -0.507043        -0.523421
 H        -0.538662        -0.292403         1.155506
 H        -0.633874         1.017791        -0.039834
 H         2.446603         1.598068         1.139794
 H         2.783951        -0.097212         1.529135
 H         1.597826         1.817395        -1.418742
 H         1.640353         0.450049        -2.427319
 H         5.333382        -1.713770        -1.070370
 H         4.863753        -1.278094         0.682900
 H         3.222328        -1.606239        -1.778635
