19
Iteration:   738charge 0 multiplicity 1
 C        -0.102630         0.091944         0.200499
 C         1.343541        -0.111318        -0.151018
 C         2.611977         0.401858         0.753648
 C         3.231222         0.364930        -0.666675
 C         1.951789         0.968136        -1.338398
 O         4.664756         0.333105        -0.793850
 C         4.623525        -1.082955        -0.360549
 C         3.136150        -1.088132        -1.026224
 O         1.785015        -1.422731        -0.367770
 H        -0.270665        -0.651738         0.897002
 H        -0.204765         0.981923         0.718327
 H        -0.800585        -0.131268        -0.669102
 H         2.450351         1.489632         1.023806
 H         3.072706        -0.463458         1.326769
 H         1.652397         2.043410        -1.233238
 H         1.832065         0.560425        -2.331350
 H         5.355376        -1.704077        -0.964625
 H         4.691831        -1.361462         0.654335
 H         3.044924        -1.436905        -2.028742
