19
Iteration:  3828
 C        -0.130883         0.036077         0.127013
 C         1.305586        -0.026734        -0.142907
 C         2.446603         0.501496         0.709358
 C         3.223866         0.326905        -0.762527
 C         1.960513         0.855908        -1.462221
 O         4.680119         0.322551        -0.887856
 C         4.740716        -1.074684        -0.420420
 C         3.126338        -1.123409        -0.823030
 O         1.914351        -1.390484        -0.115117
 H        -0.847088        -0.519695        -0.435391
 H        -0.535315        -0.280944         1.137437
 H        -0.691094         0.993535        -0.241293
 H         2.411869         1.558226         1.066333
 H         2.689765        -0.183364         1.594891
 H         1.823930         1.937545        -1.170874
 H         1.823874         0.500028        -2.485074
 H         5.286486        -1.631077        -1.135326
 H         5.028478        -1.398334         0.661322
 H         2.999589        -1.411056        -1.900508
