19
Iteration:  2647charge 0 multiplicity 1
 C        -0.091550        -0.025420         0.288071
 C         1.345605        -0.008067        -0.245649
 C         2.553285         0.529586         0.642237
 C         3.192714         0.351173        -0.679897
 C         1.919807         0.820920        -1.482870
 O         4.734145         0.310098        -0.796310
 C         4.572913        -1.098022        -0.279450
 C         3.150089        -1.063142        -0.925613
 O         1.845166        -1.345597        -0.323984
 H        -0.146197        -1.043541         0.591624
 H        -0.242291         0.662658         1.170916
 H        -0.824448         0.110059        -0.497495
 H         2.548809         1.622486         0.938673
 H         2.771048        -0.120149         1.508504
 H         1.605509         1.824159        -1.544357
 H         1.871778         0.354128        -2.461439
 H         5.297926        -1.712476        -0.715223
 H         4.560917        -1.320774         0.789705
 H         3.144078        -1.463192        -1.918189
