19
Iteration:  1413charge 0 multiplicity 1
 C        -0.084724         0.089947         0.202343
 C         1.331725         0.082694        -0.117788
 C         2.497330         0.400944         0.801992
 C         3.208582         0.355351        -0.601344
 C         1.943506         0.835475        -1.277761
 O         4.647697         0.302716        -0.886711
 C         4.643128        -1.092105        -0.453150
 C         3.160813        -1.200946        -0.922795
 O         1.862570        -1.380917        -0.422728
 H        -0.582780        -0.881411         0.600410
 H        -0.434497         0.985608         0.612967
 H        -0.622446         0.166840        -0.909938
 H         2.651802         1.501280         1.098633
 H         2.816171        -0.223645         1.664866
 H         1.865773         1.942116        -1.119073
 H         1.723956         0.487156        -2.316416
 H         5.413842        -1.550313        -1.094784
 H         4.973595        -1.152938         0.591019
 H         3.192500        -1.258503        -2.012184
