19
Iteration:  4697
 C        -0.176786         0.056182         0.205109
 C         1.370055         0.023848        -0.210923
 C         2.568089         0.487977         0.651806
 C         3.282798         0.383560        -0.635317
 C         1.914988         0.753131        -1.411245
 O         4.735328         0.327409        -0.853678
 C         4.661479        -0.984379        -0.371513
 C         3.167518        -1.105451        -0.844436
 O         1.731940        -1.431277        -0.296960
 H        -0.742420        -0.304146        -0.673481
 H        -0.185976        -0.808926         0.885383
 H        -0.734389         0.966715         0.473495
 H         2.478732         1.547231         1.056543
 H         2.786920        -0.219061         1.503645
 H         1.634860         1.793766        -1.322990
 H         1.951366         0.286374        -2.384133
 H         5.345823        -1.744670        -0.807442
 H         4.861668        -1.243099         0.712519
 H         3.237890        -1.560626        -1.893380
