19
Iteration:  3628charge 0 multiplicity 1
 C        -0.110219        -0.023935         0.282646
 C         1.262991         0.037107        -0.260592
 C         2.501194         0.696377         0.672832
 C         3.217894         0.338399        -0.769116
 C         1.854879         0.831526        -1.402929
 O         4.760104         0.292363        -0.760913
 C         4.664160        -1.188277        -0.358737
 C         3.163275        -1.109896        -0.870213
 O         1.907993        -1.447615        -0.326922
 H        -0.810800        -0.663331        -0.310831
 H        -0.053178        -0.362456         1.323024
 H        -0.582490         0.918132         0.242023
 H         2.343484         1.816567         0.718241
 H         2.787353         0.201571         1.606231
 H         1.451723         1.791043        -1.241406
 H         1.548226         0.601413        -2.451056
 H         5.446066        -1.743021        -1.024009
 H         4.848228        -1.248457         0.748608
 H         3.256001        -1.382254        -1.990005
