19
Iteration:  1400
 C        -0.105029         0.101392         0.162747
 C         1.408700         0.013294        -0.073961
 C         2.531549         0.484689         0.811278
 C         3.267619         0.261470        -0.641894
 C         2.015970         0.818815        -1.307919
 O         4.630912         0.395709        -0.820728
 C         4.665322        -1.099959        -0.488431
 C         3.107430        -1.102380        -0.960512
 O         1.764904        -1.425806        -0.417268
 H        -0.359706        -0.833230         0.664080
 H        -0.290344         0.801678         1.021547
 H        -0.631522         0.236712        -0.849092
 H         2.337323         1.569773         1.180319
 H         2.753345        -0.269300         1.634238
 H         1.770871         1.869084        -1.425326
 H         1.736698         0.313302        -2.193120
 H         5.404771        -1.699589        -1.053133
 H         4.681974        -1.299659         0.566015
 H         3.132885        -1.507171        -2.012747
