19
Iteration:   477
 C        -0.158559         0.098871         0.183167
 C         1.342975        -0.056252        -0.128027
 C         2.600586         0.462879         0.812712
 C         3.253777         0.354834        -0.601534
 C         1.936330         0.946128        -1.262572
 O         4.668859         0.279233        -0.815675
 C         4.617359        -1.137872        -0.449758
 C         3.121465        -1.134287        -0.999904
 O         1.842010        -1.407566        -0.479011
 H        -0.331313        -0.080095         1.215047
 H        -0.415744         1.085059        -0.057374
 H        -0.773688        -0.737127        -0.182583
 H         2.706129         1.509205         1.103249
 H         2.814437        -0.289407         1.577047
 H         1.782602         1.933364        -1.041418
 H         1.895253         0.823896        -2.356649
 H         5.493780        -1.592550        -0.988914
 H         4.580824        -1.274528         0.630424
 H         3.074363        -1.315860        -2.095067
