19
Iteration:   755
 C        -0.155458         0.129063         0.206041
 C         1.348045         0.052310        -0.139848
 C         2.501226         0.414789         0.746627
 C         3.204867         0.306286        -0.703835
 C         1.957473         0.884755        -1.268173
 O         4.684711         0.345726        -0.806554
 C         4.619374        -1.108831        -0.470618
 C         3.146369        -1.164199        -0.969528
 O         1.929104        -1.493455        -0.385061
 H        -0.694013        -0.749119         0.746124
 H        -0.190198         1.126705         0.808718
 H        -0.631856         0.286646        -0.768931
 H         2.534087         1.419228         1.175178
 H         2.621299        -0.251993         1.549900
 H         1.748247         1.848470        -0.842633
 H         1.636539         0.815518        -2.352755
 H         5.495984        -1.535458        -0.898034
 H         4.595722        -1.025683         0.675820
 H         3.173462        -1.324616        -2.097567
