19
Iteration:  2047
 C        -0.108060         0.095557         0.100231
 C         1.403407        -0.095072        -0.101161
 C         2.570667         0.434967         0.735695
 C         3.225245         0.361124        -0.675330
 C         2.016013         0.922726        -1.315606
 O         4.710765         0.343304        -0.845617
 C         4.543939        -1.115496        -0.441028
 C         3.078521        -1.068779        -0.931922
 O         1.831259        -1.470996        -0.293885
 H        -0.543171        -0.527392         1.028411
 H        -0.381671         1.124813         0.231165
 H        -0.697367        -0.344172        -0.710137
 H         2.489171         1.434075         1.153641
 H         2.696670        -0.293585         1.577166
 H         1.799305         2.031517        -1.126432
 H         1.812912         0.709353        -2.434332
 H         5.499680        -1.527689        -0.925329
 H         4.524978        -1.199003         0.668186
 H         2.943328        -1.364779        -1.938801
