19
Iteration:  2522charge 0 multiplicity 1
 C        -0.201816         0.002268         0.173908
 C         1.383419         0.000910        -0.172931
 C         2.527272         0.587099         0.715875
 C         3.263965         0.369223        -0.675470
 C         1.946461         0.893063        -1.373405
 O         4.703339         0.280127        -0.847845
 C         4.605648        -1.171228        -0.392080
 C         3.137415        -1.089069        -0.839094
 O         1.881654        -1.413325        -0.314463
 H        -0.301157        -0.086220         1.297796
 H        -0.639252         0.867442        -0.255451
 H        -0.641032        -0.900324        -0.356931
 H         2.455703         1.561977         1.163961
 H         2.677121        -0.312939         1.323053
 H         1.489944         1.915315        -1.252472
 H         1.941300         0.531288        -2.393781
 H         5.360583        -1.665107        -1.091840
 H         4.748025        -1.366640         0.651741
 H         3.173310        -1.096321        -1.986076
