19
Iteration:   387charge 0 multiplicity 1
 C         0.005676         0.047768         0.310821
 C         1.364131        -0.032873        -0.162980
 C         2.516039         0.491231         0.664106
 C         3.258294         0.384801        -0.601931
 C         1.923907         0.910249        -1.349064
 O         4.656887         0.248246        -0.778010
 C         4.596507        -1.139041        -0.345517
 C         3.118861        -1.040392        -0.987023
 O         1.817194        -1.418839        -0.512879
 H        -0.398722        -0.883510         0.564662
 H         0.041356         0.855307         1.106062
 H        -0.705199         0.192989        -0.527332
 H         2.246731         1.490426         1.169108
 H         2.803846        -0.309321         1.436794
 H         1.842367         2.031335        -1.175352
 H         1.772120         0.543940        -2.321468
 H         5.341415        -1.661698        -0.896392
 H         4.514500        -1.352798         0.751076
 H         3.124205        -1.215875        -2.057752
