19
Iteration:   812charge 0 multiplicity 1
 C        -0.094739        -0.063848         0.205724
 C         1.336924         0.097322        -0.134201
 C         2.522488         0.537881         0.749980
 C         3.248457         0.376711        -0.725159
 C         1.996503         0.953616        -1.305805
 O         4.719065         0.330467        -0.705850
 C         4.547817        -1.245652        -0.498681
 C         3.074519        -1.088333        -0.968995
 O         1.868440        -1.428375        -0.392019
 H        -0.093580        -0.913630         0.906031
 H        -0.459239         0.813789         0.823585
 H        -0.821160        -0.196081        -0.745731
 H         2.485907         1.609619         0.986670
 H         2.771116        -0.208626         1.498677
 H         1.683936         2.026098        -1.246078
 H         1.715707         0.574982        -2.338766
 H         5.335010        -1.827732        -0.991352
 H         4.917052        -1.309816         0.600573
 H         3.052116        -1.387529        -2.058755
