19
Iteration:  4787
 C        -0.085172        -0.087261         0.202777
 C         1.336882         0.096008        -0.186537
 C         2.534947         0.664044         0.695649
 C         3.263211         0.312424        -0.662177
 C         1.959644         0.826619        -1.429571
 O         4.668128         0.349800        -0.764302
 C         4.625268        -1.129074        -0.405840
 C         3.137790        -1.173993        -0.888751
 O         1.799791        -1.409099        -0.356532
 H        -0.583425        -1.045544        -0.136146
 H        -0.011285        -0.087420         1.291059
 H        -0.631357         0.704156        -0.189027
 H         2.604391         1.643768         0.993623
 H         2.602366         0.178769         1.649357
 H         1.916668         1.890804        -1.315567
 H         1.750457         0.352731        -2.390784
 H         5.372171        -1.723569        -0.902479
 H         4.733483        -1.163894         0.701318
 H         3.056210        -1.479367        -1.933987
