19
Iteration:    12charge 0 multiplicity 1
 C        -0.129078        -0.078712         0.308605
 C         1.300174         0.091118        -0.180409
 C         2.517802         0.551782         0.760799
 C         3.241642         0.293834        -0.703530
 C         1.900995         0.921972        -1.308105
 O         4.769006         0.292764        -0.721602
 C         4.597479        -1.139095        -0.456673
 C         3.152705        -1.149642        -0.978688
 O         1.864628        -1.327115        -0.482236
 H        -0.163466        -0.501719         1.339781
 H        -0.534038         0.934813         0.350760
 H        -0.767351        -0.655803        -0.400784
 H         2.550794         1.637306         0.812569
 H         2.950910         0.116165         1.657250
 H         1.809000         1.986584        -1.361325
 H         1.529035         0.389735        -2.172774
 H         5.121566        -1.782863        -1.159369
 H         4.756000        -1.409853         0.579107
 H         3.200980        -1.631307        -1.947916
