19
Iteration:  2981
 C        -0.109805        -0.063024         0.236776
 C         1.313855         0.023650        -0.211858
 C         2.492517         0.478915         0.704900
 C         3.217249         0.449099        -0.700815
 C         1.885061         0.921865        -1.405334
 O         4.725654         0.232842        -0.830605
 C         4.649550        -1.114351        -0.310940
 C         3.168351        -1.011785        -0.868649
 O         1.875973        -1.418779        -0.362646
 H        -0.248029        -0.417943         1.266567
 H        -0.301361         1.049095         0.456360
 H        -0.780591        -0.639732        -0.366635
 H         2.329151         1.583678         0.936398
 H         2.856040        -0.204934         1.439720
 H         1.554183         1.952549        -1.620394
 H         1.799753         0.400101        -2.469988
 H         5.142708        -1.773534        -0.995314
 H         4.850019        -1.486780         0.736018
 H         3.341833        -1.274402        -1.878280
