19
Iteration:   421
 C        -0.168245        -0.055131         0.237194
 C         1.368503         0.061189        -0.076501
 C         2.519837         0.558666         0.681287
 C         3.280309         0.341134        -0.635453
 C         1.908863         0.999313        -1.341466
 O         4.711916         0.263051        -0.659348
 C         4.613123        -1.224756        -0.519177
 C         3.100336        -1.120938        -1.039531
 O         1.877817        -1.363939        -0.381712
 H        -0.379749        -0.828842         0.868806
 H        -0.635478         0.812537         0.672144
 H        -0.621887        -0.089008        -0.772250
 H         2.578225         1.610194         0.990745
 H         2.896984        -0.106882         1.476364
 H         1.949118         2.048080        -1.295450
 H         1.617397         0.656168        -2.332190
 H         5.306374        -1.625476        -1.252898
 H         4.858271        -1.660160         0.450010
 H         3.092372        -1.490293        -2.075432
