19
Iteration:  3723
 C        -0.073822         0.031749         0.279398
 C         1.363952         0.074709        -0.157666
 C         2.538541         0.556406         0.636196
 C         3.251476         0.313472        -0.688715
 C         1.940585         0.691468        -1.445934
 O         4.622200         0.345947        -0.801584
 C         4.672877        -1.032520        -0.326843
 C         3.140650        -1.138676        -0.894680
 O         1.788966        -1.421976        -0.346825
 H        -0.744768        -0.365840        -0.598541
 H        -0.093984        -0.580226         1.169919
 H        -0.397216         1.059211         0.510180
 H         2.521530         1.631189         0.806024
 H         2.950929         0.029698         1.483571
 H         1.675810         1.739331        -1.559454
 H         1.711602         0.260017        -2.444187
 H         5.337793        -1.760529        -0.817459
 H         4.854808        -0.896075         0.699736
 H         3.158948        -1.435893        -1.952791
