19
Iteration:  1079charge 0 multiplicity 1
 C        -0.081880        -0.084103         0.145026
 C         1.344547        -0.008283        -0.120167
 C         2.593119         0.535239         0.798102
 C         3.256161         0.438588        -0.647388
 C         2.001638         0.995948        -1.312050
 O         4.720416         0.229211        -0.735904
 C         4.515713        -1.211663        -0.513991
 C         3.119140        -1.043904        -0.937190
 O         1.787415        -1.370785        -0.415574
 H        -0.177959        -0.426547         1.175886
 H        -0.608033         0.783163        -0.294250
 H        -0.369564        -0.883619        -0.433530
 H         2.417734         1.577374         1.155646
 H         2.907459         0.036985         1.727519
 H         1.792963         1.961081        -1.015308
 H         1.665973         0.739705        -2.294154
 H         5.061935        -1.762940        -1.271962
 H         4.688748        -1.538069         0.494203
 H         3.084457        -1.257903        -2.024476
