19
Iteration:  2021
 C        -0.087796         0.022413         0.216321
 C         1.388247        -0.000382        -0.164215
 C         2.555993         0.614340         0.739903
 C         3.211696         0.304775        -0.679050
 C         1.954577         0.901626        -1.265803
 O         4.652645         0.259658        -0.823317
 C         4.624564        -1.134763        -0.376061
 C         3.152388        -1.130465        -0.876599
 O         1.807019        -1.392516        -0.523887
 H        -0.256716        -0.876663         0.762487
 H        -0.419224         0.871266         0.874951
 H        -0.852551        -0.106724        -0.648249
 H         2.403028         1.629589         1.074615
 H         2.911930        -0.001184         1.529021
 H         1.945495         1.967255        -1.172346
 H         1.517120         0.490207        -2.201465
 H         5.399943        -1.677127        -0.831138
 H         4.746326        -1.148570         0.718814
 H         3.222469        -1.529560        -1.950872
