19
Iteration:  1615charge 0 multiplicity 1
 C        -0.097136        -0.030981         0.247547
 C         1.329649         0.030008        -0.194012
 C         2.585107         0.539593         0.737153
 C         3.237228         0.442712        -0.670352
 C         1.933341         0.883527        -1.377880
 O         4.705954         0.294299        -0.667060
 C         4.564244        -1.190877        -0.511460
 C         3.108757        -1.085828        -0.909844
 O         1.888323        -1.416939        -0.416794
 H        -0.476091        -0.908669         0.750917
 H        -0.378181         0.777354         1.025008
 H        -0.731540         0.170108        -0.556244
 H         2.352503         1.540496         1.056723
 H         2.964877        -0.237371         1.358420
 H         1.596584         2.008689        -1.188814
 H         1.613535         0.715196        -2.493987
 H         5.228584        -1.743677        -1.277284
 H         4.748650        -1.607766         0.526400
 H         3.212256        -1.384459        -1.968352
