19
Iteration:  4795charge 0 multiplicity 1
 C        -0.144736        -0.048348         0.176310
 C         1.357223        -0.022211        -0.207737
 C         2.548412         0.604829         0.646337
 C         3.273754         0.280390        -0.611312
 C         1.981312         0.904657        -1.386277
 O         4.697090         0.397991        -0.832263
 C         4.580534        -1.137187        -0.412903
 C         3.159315        -1.157763        -0.827747
 O         1.775576        -1.424718        -0.287533
 H        -0.588028        -0.947105        -0.302424
 H        -0.201247        -0.156281         1.294150
 H        -0.711522         0.841230        -0.139203
 H         2.416737         1.759524         0.576618
 H         2.707058         0.108817         1.666537
 H         1.868652         1.989433        -1.281665
 H         1.890643         0.550638        -2.435890
 H         5.408937        -1.655285        -0.971521
 H         4.907007        -1.282415         0.670010
 H         3.235759        -1.449440        -1.934891
