19
Iteration:   441
 C        -0.072573        -0.054355         0.148743
 C         1.369388         0.034074        -0.205085
 C         2.553508         0.531469         0.760278
 C         3.254231         0.363094        -0.612162
 C         1.975629         0.958063        -1.289699
 O         4.715266         0.282880        -0.749043
 C         4.604925        -1.196385        -0.578873
 C         3.068387        -1.077897        -0.915023
 O         1.800230        -1.380102        -0.347561
 H         0.005903        -0.596985         1.096756
 H        -0.563607         0.969958         0.305217
 H        -0.779322        -0.539267        -0.576985
 H         2.475920         1.636233         1.080127
 H         2.628338        -0.208776         1.608989
 H         1.683084         1.956978        -0.800362
 H         1.984092         0.752757        -2.346087
 H         5.185012        -1.764417        -1.287532
 H         4.694832        -1.578147         0.480971
 H         2.967525        -1.343368        -1.971330
