19
Iteration:  3103
 C        -0.050559        -0.046668         0.378049
 C         1.343315        -0.005451        -0.202549
 C         2.545813         0.479851         0.613211
 C         3.284914         0.374981        -0.792147
 C         1.872540         0.842780        -1.487720
 O         4.799814         0.349588        -0.720313
 C         4.586425        -1.023675        -0.270564
 C         3.152958        -1.142029        -0.938008
 O         1.727159        -1.408566        -0.421624
 H        -0.152105        -0.724684         1.205681
 H        -0.404648         0.952752         0.825454
 H        -0.706217        -0.308210        -0.510503
 H         2.247837         1.534858         0.845485
 H         2.795625        -0.196829         1.435134
 H         1.749437         1.919312        -1.212619
 H         1.621425         0.483776        -2.545300
 H         5.464559        -1.606724        -0.527566
 H         4.477242        -1.025411         0.847515
 H         3.222014        -1.418205        -1.959718
