19
Iteration:  4289
 C        -0.052181        -0.024693         0.237565
 C         1.321499        -0.026884        -0.206204
 C         2.540695         0.587522         0.659740
 C         3.242718         0.341343        -0.727009
 C         1.881665         0.859831        -1.529054
 O         4.664985         0.329115        -0.780765
 C         4.600412        -1.095965        -0.347160
 C         3.113606        -1.137257        -0.881157
 O         1.884813        -1.405329        -0.233663
 H        -0.577724        -0.971459        -0.118389
 H        -0.110999        -0.180866         1.356523
 H        -0.435303         0.986273         0.175168
 H         2.441481         1.704278         0.741337
 H         2.845886        -0.172060         1.419196
 H         1.758824         1.971899        -1.537328
 H         1.727075         0.532073        -2.540753
 H         5.491821        -1.687153        -0.820832
 H         4.650044        -1.206811         0.748356
 H         3.198327        -1.379234        -1.928953
