19
Iteration:   213
 C         0.008698         0.052561         0.317377
 C         1.385580        -0.111457        -0.238713
 C         2.523200         0.485771         0.755866
 C         3.249150         0.342810        -0.673828
 C         1.948997         0.998029        -1.346315
 O         4.697284         0.256054        -0.795388
 C         4.534982        -1.043953        -0.378482
 C         3.103874        -1.153962        -0.975713
 O         1.800690        -1.429238        -0.501620
 H        -0.109413        -0.754409         1.029273
 H        -0.058692         0.972298         1.045639
 H        -0.841408         0.179599        -0.446976
 H         2.303457         1.447853         1.347174
 H         2.760812        -0.463473         1.364018
 H         1.670042         2.157267        -1.040651
 H         1.652070         0.940266        -2.432455
 H         5.436645        -1.569926        -0.650259
 H         4.534118        -1.033554         0.763935
 H         3.200537        -1.525003        -2.020257
