19
Iteration:  1649charge 0 multiplicity 1
 C        -0.080106        -0.010334         0.356385
 C         1.390829        -0.006337        -0.183618
 C         2.526994         0.452077         0.726252
 C         3.257542         0.390527        -0.659705
 C         1.976918         0.869963        -1.320208
 O         4.694463         0.347325        -0.764426
 C         4.596465        -1.127076        -0.363480
 C         3.116051        -1.144311        -0.990885
 O         1.778732        -1.367551        -0.576617
 H        -0.189003        -0.539759         1.250987
 H        -0.202386         1.120720         0.428674
 H        -0.784222        -0.324640        -0.363080
 H         2.302130         1.455493         1.089629
 H         2.892847        -0.067683         1.601052
 H         1.770146         1.989724        -1.095774
 H         1.725299         0.547543        -2.383065
 H         5.419399        -1.766753        -0.795637
 H         4.469782        -1.334874         0.733647
 H         3.177490        -1.425545        -2.053808
