19
Iteration:  1115
 C        -0.179890         0.064971         0.214500
 C         1.383267         0.033680        -0.138978
 C         2.503576         0.449013         0.767047
 C         3.242668         0.359047        -0.656700
 C         1.979959         0.892667        -1.290578
 O         4.686170         0.275524        -0.720583
 C         4.576019        -1.194961        -0.502118
 C         3.186603        -1.036529        -0.999131
 O         1.873110        -1.401588        -0.430152
 H        -0.554714        -0.269281         1.168768
 H        -0.640288         1.064505         0.271970
 H        -0.669811        -0.557967        -0.543511
 H         2.412410         1.546030         0.974322
 H         2.849615        -0.255653         1.610512
 H         1.932558         1.979353        -1.096006
 H         1.629895         0.653371        -2.296054
 H         5.237298        -1.752211        -1.177542
 H         4.862867        -1.456256         0.530367
 H         3.257324        -1.326171        -2.016962
