19
Iteration:  1467charge 0 multiplicity 1
 C        -0.062247        -0.059635         0.289858
 C         1.373870         0.058918        -0.183147
 C         2.545803         0.532338         0.766882
 C         3.230506         0.420510        -0.674361
 C         1.964110         0.892076        -1.350002
 O         4.611044         0.248243        -0.704918
 C         4.540034        -1.226087        -0.439635
 C         3.106452        -1.052646        -1.033121
 O         1.887227        -1.350170        -0.466561
 H        -0.076380        -0.242328         1.371969
 H        -0.577660         0.826935         0.255604
 H        -0.497541        -0.897353        -0.289762
 H         2.782241         1.597253         1.102037
 H         2.919792        -0.097512         1.608321
 H         1.838291         1.957673        -1.302750
 H         1.643789         0.439154        -2.249380
 H         5.371740        -1.610061        -1.006124
 H         4.620612        -1.519330         0.605211
 H         3.185287        -1.183067        -2.130659
