19
Iteration:  3245
 C        -0.019622        -0.080433         0.294803
 C         1.306634         0.075116        -0.214488
 C         2.455367         0.602088         0.585196
 C         3.225741         0.381167        -0.771886
 C         1.842522         0.751097        -1.518292
 O         4.756720         0.280445        -0.773516
 C         4.607213        -1.057993        -0.273769
 C         3.140183        -1.094908        -0.866889
 O         1.906791        -1.392606        -0.298959
 H        -0.840728        -0.068773        -0.429882
 H        -0.214564        -0.854755         0.967123
 H        -0.050254         0.925313         0.854642
 H         2.290589         1.613882         0.912869
 H         2.738170        -0.096873         1.398100
 H         1.584713         1.833224        -1.490243
 H         1.615158         0.198805        -2.383145
 H         5.333542        -1.806443        -0.625521
 H         4.655213        -1.009712         0.799781
 H         3.149512        -1.427874        -1.921103
