19
Iteration:  1212
 C        -0.010570        -0.060520         0.208702
 C         1.397989         0.020087        -0.186775
 C         2.557236         0.526471         0.705549
 C         3.291057         0.393999        -0.641399
 C         1.969110         0.993981        -1.368561
 O         4.663086         0.244932        -0.728766
 C         4.497196        -1.170535        -0.460554
 C         3.107317        -1.116801        -0.968912
 O         1.817081        -1.378606        -0.346857
 H        -0.177027        -0.926894         0.886087
 H        -0.498351         0.807397         0.839684
 H        -0.629045        -0.208586        -0.670706
 H         2.347723         1.599418         0.935093
 H         2.690117        -0.142684         1.625529
 H         1.571461         1.927045        -1.148901
 H         1.882288         0.942875        -2.418719
 H         5.123761        -1.794784        -1.076293
 H         4.632820        -1.365281         0.602296
 H         3.233421        -1.315958        -2.077481
