19
Iteration:  2803
 C        -0.006589         0.036425         0.335102
 C         1.353914        -0.034125        -0.152038
 C         2.473846         0.510647         0.569505
 C         3.278830         0.338272        -0.700880
 C         1.942951         0.873683        -1.399145
 O         4.674528         0.392546        -0.690066
 C         4.675794        -1.037382        -0.313943
 C         3.080658        -1.186298        -0.966103
 O         1.740222        -1.507579        -0.483061
 H        -0.064224         0.268957         1.456709
 H        -0.431486         0.810863        -0.250362
 H        -0.738265        -0.791933         0.054856
 H         2.349726         1.522785         1.022464
 H         3.031927        -0.050549         1.442768
 H         1.877092         1.959937        -1.038835
 H         1.767043         0.808844        -2.489028
 H         5.536239        -1.502388        -0.902291
 H         4.787176        -1.255609         0.732541
 H         3.218694        -1.525883        -1.990803
