19
Iteration:  3659charge 0 multiplicity 1
 C        -0.074283        -0.105968         0.127301
 C         1.300289         0.052281        -0.074540
 C         2.543899         0.594803         0.779672
 C         3.235755         0.347932        -0.755000
 C         2.093072         0.814711        -1.447845
 O         4.676521         0.391766        -0.843014
 C         4.587746        -1.139274        -0.475386
 C         3.069814        -1.147276        -0.858063
 O         1.805122        -1.364728        -0.191708
 H        -0.449698        -1.044693        -0.455937
 H        -0.435666        -0.204297         1.129514
 H        -0.608164         0.694819        -0.337178
 H         2.465689         1.667951         1.032793
 H         2.881618         0.185208         1.728513
 H         1.685130         1.784630        -1.400169
 H         1.857438         0.351216        -2.433006
 H         5.268823        -1.785190        -1.166119
 H         4.922195        -1.177403         0.515909
 H         3.198453        -1.481252        -1.863397
