19
Iteration:  1884
 C        -0.140468        -0.009327         0.119377
 C         1.376562         0.010279        -0.148296
 C         2.530456         0.498606         0.802677
 C         3.264235         0.407770        -0.657054
 C         1.935799         0.900241        -1.258942
 O         4.740352         0.299986        -0.756481
 C         4.621379        -1.186553        -0.518974
 C         3.146128        -1.118477        -1.013384
 O         1.805621        -1.392421        -0.324188
 H        -0.472783        -0.092005         1.210331
 H        -0.447295         0.918312        -0.272183
 H        -0.728884        -0.722794        -0.421397
 H         2.370919         1.611123         0.992862
 H         3.036989        -0.079753         1.615473
 H         1.683174         1.931955        -1.121980
 H         1.599444         0.670853        -2.272319
 H         5.400109        -1.782696        -1.099423
 H         4.740531        -1.269925         0.566171
 H         2.847021        -1.314454        -2.065977
