19
Iteration:  2546
 C        -0.183528         0.159298         0.141523
 C         1.313202         0.075579        -0.106238
 C         2.483079         0.525316         0.725388
 C         3.186166         0.215082        -0.711761
 C         1.910107         0.832564        -1.317222
 O         4.720392         0.352687        -0.770310
 C         4.708557        -1.065750        -0.453136
 C         3.193445        -1.211103        -0.936418
 O         1.866257        -1.486482        -0.310586
 H        -0.427015         0.174645         1.263031
 H        -0.655681         0.907690        -0.453343
 H        -0.500029        -0.778553        -0.295608
 H         2.464749         1.638832         0.801004
 H         2.780748        -0.128825         1.562063
 H         1.713997         1.866917        -0.986844
 H         1.847395         0.726342        -2.360627
 H         5.358288        -1.645981        -1.147531
 H         5.036663        -1.058077         0.561986
 H         3.230857        -1.514825        -2.008343
