19
Iteration:  4631charge 0 multiplicity 1
 C        -0.189629        -0.062786         0.182887
 C         1.288186        -0.018130        -0.126581
 C         2.568499         0.575126         0.713825
 C         3.228491         0.419209        -0.757126
 C         1.971954         0.783108        -1.496517
 O         4.754479         0.320267        -0.805875
 C         4.631477        -1.106310        -0.427422
 C         3.196856        -1.126827        -0.802149
 O         1.782410        -1.321514        -0.242556
 H        -0.744538         0.081073        -0.730041
 H        -0.463975        -1.057268         0.511219
 H        -0.549394         0.673020         0.947964
 H         2.413324         1.629957         1.078222
 H         2.799035        -0.145119         1.517427
 H         1.558129         1.781274        -1.385352
 H         1.912516         0.390920        -2.488938
 H         5.301483        -1.716334        -1.009314
 H         5.145419        -1.262013         0.507512
 H         3.257286        -1.485860        -1.870251
