19
Iteration:  3496charge 0 multiplicity 1
 C        -0.233122        -0.006633         0.111290
 C         1.311832         0.024383        -0.105334
 C         2.525617         0.640598         0.625156
 C         3.247206         0.334780        -0.677918
 C         1.882552         0.861535        -1.355474
 O         4.735942         0.355316        -0.803086
 C         4.656862        -1.140983        -0.503294
 C         3.168270        -1.124009        -0.833130
 O         1.922801        -1.502419        -0.208478
 H        -0.634076        -0.913345        -0.445701
 H        -0.270467        -0.206516         1.139826
 H        -0.837727         0.856619        -0.143321
 H         2.385131         1.743109         0.684673
 H         2.947253         0.282866         1.601715
 H         1.740388         1.924674        -1.176983
 H         1.595542         0.591261        -2.357571
 H         5.439351        -1.664956        -1.199705
 H         4.946818        -1.364549         0.576550
 H         3.010810        -1.549040        -1.880925
