19
Iteration:  4873
 C        -0.082213        -0.013707         0.262949
 C         1.305711         0.036660        -0.232004
 C         2.475105         0.583663         0.565261
 C         3.215395         0.340993        -0.721510
 C         1.927543         0.896589        -1.477437
 O         4.714145         0.288818        -0.776505
 C         4.686006        -1.153846        -0.265799
 C         3.139515        -1.128315        -0.853894
 O         1.843918        -1.400427        -0.308017
 H        -0.877152         0.174533        -0.536763
 H        -0.240960        -1.042768         0.625995
 H        -0.234234         0.596936         1.086966
 H         2.276630         1.682893         0.695361
 H         2.846468         0.037841         1.492152
 H         1.515231         1.865848        -1.317466
 H         1.780191         0.624794        -2.516777
 H         5.391316        -1.746113        -0.806725
 H         4.829981        -1.001762         0.816737
 H         3.348565        -1.726215        -1.776722
