19
Iteration:  2122charge 0 multiplicity 1
 C        -0.051104        -0.069425         0.296844
 C         1.368490         0.116805        -0.219086
 C         2.468069         0.492908         0.665046
 C         3.226955         0.409763        -0.684720
 C         1.982479         0.937905        -1.397416
 O         4.687641         0.247849        -0.698662
 C         4.515694        -1.213849        -0.408408
 C         3.156323        -1.046390        -0.917061
 O         1.878430        -1.401522        -0.421635
 H        -0.040259        -0.160801         1.493577
 H        -0.593293         0.826368         0.027248
 H        -0.657335        -0.875697        -0.179526
 H         2.332604         1.473047         1.065626
 H         2.945457        -0.249531         1.268128
 H         1.841829         2.059792        -1.235518
 H         1.585671         0.577017        -2.414354
 H         5.186760        -1.918113        -0.971687
 H         4.711978        -1.188537         0.649070
 H         3.197375        -1.192485        -2.058667
