19
Iteration:  3739
 C         0.000324         0.007057         0.377841
 C         1.358932        -0.047085        -0.228819
 C         2.520783         0.671796         0.586296
 C         3.181030         0.280034        -0.780703
 C         1.976287         0.824691        -1.509495
 O         4.598885         0.345790        -0.764716
 C         4.625426        -1.069682        -0.241193
 C         3.122174        -1.201625        -0.898783
 O         1.833388        -1.393575        -0.373335
 H        -0.704890        -0.239112        -0.379485
 H         0.013307        -0.856223         1.126608
 H        -0.039479         0.931987         1.015193
 H         2.323004         1.765019         0.613421
 H         2.720472         0.166801         1.565167
 H         1.761414         1.904045        -1.361817
 H         1.845288         0.378299        -2.479802
 H         5.492017        -1.450155        -0.778890
 H         4.671279        -1.325468         0.872760
 H         3.145503        -1.668214        -1.909324
