19
Iteration:  1328
 C        -0.064347        -0.111151         0.306054
 C         1.422318         0.010615        -0.145835
 C         2.572532         0.534800         0.698417
 C         3.245782         0.421665        -0.697411
 C         2.022321         0.904212        -1.339456
 O         4.689762         0.269904        -0.739229
 C         4.499609        -1.187652        -0.353466
 C         3.095362        -1.034433        -0.914444
 O         1.742103        -1.368165        -0.547600
 H        -0.135155        -0.529320         1.332032
 H        -0.416187         0.812915         0.522420
 H        -0.550079        -0.629511        -0.453649
 H         2.349800         1.534707         0.896263
 H         3.095512        -0.041046         1.430727
 H         1.762514         1.995878        -1.368782
 H         1.847014         0.634861        -2.428947
 H         5.182990        -1.780514        -0.970547
 H         4.898981        -1.173426         0.678650
 H         3.096279        -1.284677        -1.956443
