19
Iteration:  1730
 C        -0.110700        -0.015642         0.156175
 C         1.371450        -0.019635        -0.163825
 C         2.523350         0.502455         0.784066
 C         3.246417         0.432990        -0.616995
 C         1.960640         0.845781        -1.343319
 O         4.747938         0.307748        -0.695657
 C         4.582594        -1.193509        -0.598867
 C         3.129248        -1.004220        -0.955572
 O         1.812850        -1.370462        -0.322902
 H        -0.350087        -0.365795         1.178336
 H        -0.554043         0.912558         0.060208
 H        -0.466904        -0.721230        -0.655095
 H         2.577534         1.522805         1.241243
 H         2.834918        -0.296849         1.481520
 H         1.630118         1.808436        -1.142485
 H         1.839040         0.562150        -2.349650
 H         5.073405        -1.794869        -1.339523
 H         4.774732        -1.526855         0.416795
 H         2.805836        -1.245840        -1.986156
