19
Iteration:  1330charge 0 multiplicity 1
 C        -0.059599        -0.124313         0.303368
 C         1.415292         0.005522        -0.141206
 C         2.591936         0.550497         0.685130
 C         3.252135         0.433731        -0.699048
 C         2.028224         0.898450        -1.335817
 O         4.693495         0.264266        -0.726349
 C         4.495467        -1.175397        -0.369240
 C         3.095285        -1.053921        -0.916278
 O         1.742195        -1.362543        -0.542667
 H        -0.125089        -0.593289         1.290004
 H        -0.464190         0.881039         0.560217
 H        -0.610113        -0.564513        -0.425161
 H         2.329097         1.548818         0.868650
 H         2.974638        -0.095781         1.485372
 H         1.789801         1.923416        -1.416271
 H         1.809242         0.610626        -2.359212
 H         5.180127        -1.780894        -0.938714
 H         4.842499        -1.153089         0.678075
 H         3.045093        -1.194668        -2.022841
