19
Iteration:  4680
 C        -0.112860         0.010465         0.086095
 C         1.337176        -0.071655        -0.084980
 C         2.483200         0.646897         0.721556
 C         3.209298         0.330136        -0.721275
 C         1.951039         0.852728        -1.377243
 O         4.662370         0.354810        -0.846014
 C         4.704801        -1.114225        -0.397693
 C         3.129101        -1.185304        -0.851870
 O         1.862234        -1.425489        -0.268855
 H        -0.639296         0.118845        -0.901570
 H        -0.640617        -0.805615         0.641781
 H        -0.241154         0.926542         0.664660
 H         2.397790         1.702735         0.813326
 H         2.881660         0.136365         1.587969
 H         1.777406         1.958209        -1.243123
 H         1.602725         0.466454        -2.372685
 H         5.449271        -1.754614        -0.918779
 H         5.034028        -1.345728         0.685760
 H         3.131929        -1.478755        -1.869004
