19
Iteration:  4207charge 0 multiplicity 1
 C        -0.087662         0.056099         0.220270
 C         1.418388        -0.101116        -0.118233
 C         2.515179         0.640785         0.548008
 C         3.141272         0.309209        -0.711160
 C         1.977419         0.792581        -1.413813
 O         4.620664         0.367578        -0.820026
 C         4.630033        -1.011298        -0.345156
 C         3.170984        -1.209940        -0.926970
 O         1.841857        -1.464023        -0.220556
 H        -0.585145         0.246004        -0.657902
 H        -0.344260        -0.878952         0.607585
 H        -0.319105         0.842508         0.909253
 H         2.437870         1.637313         0.690225
 H         2.806034         0.291998         1.479731
 H         1.769290         1.820871        -1.239648
 H         1.849681         0.404337        -2.445281
 H         5.346849        -1.645087        -0.748760
 H         4.724974        -0.997928         0.762879
 H         3.292076        -1.474370        -1.999431
