19
Iteration:  4972charge 0 multiplicity 1
 C        -0.094387         0.050158         0.084948
 C         1.328968        -0.085695        -0.137867
 C         2.519873         0.596431         0.728378
 C         3.230463         0.309022        -0.599499
 C         2.024792         0.847638        -1.438358
 O         4.644166         0.367742        -0.849727
 C         4.627985        -1.089415        -0.413101
 C         3.116266        -1.139078        -0.773854
 O         1.822018        -1.443815        -0.336714
 H        -0.688050        -0.768209        -0.305879
 H        -0.178317        -0.063541         1.133614
 H        -0.523735         0.991218        -0.228346
 H         2.427335         1.620034         1.073131
 H         2.903148         0.126329         1.647747
 H         1.639431         1.865766        -1.363721
 H         2.110149         0.383202        -2.392155
 H         5.221202        -1.754119        -1.067906
 H         4.917529        -1.235703         0.661987
 H         3.230286        -1.393477        -1.840368
