19
Iteration:   145
 C        -0.143846        -0.018399         0.178968
 C         1.340785        -0.040375        -0.157158
 C         2.543859         0.578777         0.683687
 C         3.268021         0.435041        -0.639349
 C         1.972649         0.971394        -1.295114
 O         4.730745         0.301241        -0.788606
 C         4.488931        -1.260234        -0.522011
 C         3.098416        -1.062054        -0.962623
 O         1.961559        -1.460084        -0.277280
 H        -0.460836        -0.963744         0.706280
 H        -0.328503         0.720306         0.906200
 H        -0.744953         0.230028        -0.643101
 H         2.150331         1.545959         0.997577
 H         2.849850         0.058729         1.603664
 H         1.771291         2.028238        -1.187872
 H         1.743412         0.725140        -2.355898
 H         5.167544        -1.894094        -1.123620
 H         4.552588        -1.544008         0.505821
 H         2.975171        -1.192636        -2.047374
