19
Iteration:  2285charge 0 multiplicity 1
 C        -0.031435         0.039464         0.240489
 C         1.401895        -0.037889        -0.187867
 C         2.502041         0.491013         0.666193
 C         3.242082         0.343806        -0.677062
 C         1.960516         0.949530        -1.301885
 O         4.699620         0.333674        -0.801887
 C         4.568931        -1.130577        -0.303717
 C         3.124561        -1.175177        -0.905182
 O         1.778848        -1.426997        -0.486543
 H        -0.043552        -0.345007         1.348900
 H        -0.379287         1.034459         0.173443
 H        -0.764626        -0.489894        -0.327957
 H         2.385448         1.577255         0.926297
 H         2.745096        -0.264891         1.470387
 H         1.717589         2.024537        -1.078462
 H         1.904242         0.765337        -2.375533
 H         5.420723        -1.584052        -0.898814
 H         4.510805        -1.223156         0.782028
 H         3.193209        -1.343318        -2.040398
