19
Iteration:    24
 C        -0.168353        -0.113396         0.355277
 C         1.321405         0.145393        -0.078624
 C         2.525435         0.624208         0.679828
 C         3.265682         0.325994        -0.717444
 C         1.852148         0.897345        -1.363093
 O         4.804978         0.271302        -0.657315
 C         4.657703        -1.226748        -0.449602
 C         3.162144        -1.143089        -1.009709
 O         1.797470        -1.319548        -0.526876
 H        -0.070045        -0.330429         1.471240
 H        -0.837579         0.696990         0.263980
 H        -0.586445        -0.930352        -0.159447
 H         2.560077         1.681127         0.815523
 H         2.666810         0.087174         1.591726
 H         1.767524         1.963598        -1.285435
 H         1.603804         0.503295        -2.371681
 H         5.395092        -1.713244        -1.115892
 H         4.863256        -1.491973         0.547471
 H         3.175515        -1.382425        -2.069767
