19
Iteration:  3086charge 0 multiplicity 1
 C        -0.005591         0.007115         0.271931
 C         1.400520        -0.065059        -0.199428
 C         2.533607         0.584180         0.620953
 C         3.171440         0.332357        -0.697820
 C         1.943145         0.885379        -1.356439
 O         4.577229         0.352765        -0.798232
 C         4.578802        -1.094942        -0.225190
 C         3.138809        -1.143922        -0.901399
 O         1.862822        -1.431175        -0.507608
 H         0.141671        -0.444169         1.299593
 H        -0.275935         1.008327         0.337960
 H        -0.720650        -0.527318        -0.336023
 H         2.616096         1.603146         0.934089
 H         2.856517         0.065728         1.549868
 H         1.676517         1.904465        -1.105505
 H         1.758823         0.495112        -2.316943
 H         5.307431        -1.724443        -0.818904
 H         4.698417        -1.144392         0.837871
 H         3.334218        -1.619063        -1.906965
