19
Iteration:  2228
 C        -0.064800         0.004038         0.091974
 C         1.436119        -0.022685        -0.107331
 C         2.513711         0.674198         0.728751
 C         3.179182         0.330030        -0.643864
 C         1.964632         0.944958        -1.324868
 O         4.632579         0.258551        -0.728016
 C         4.621932        -1.172324        -0.484339
 C         3.085181        -1.143057        -0.911741
 O         1.835525        -1.432745        -0.342173
 H        -0.383994        -0.980137         0.366148
 H        -0.256845         0.574532         0.946259
 H        -0.623878         0.237932        -0.843438
 H         2.328627         1.777818         0.952307
 H         3.060497         0.198867         1.600222
 H         2.002077         1.970226        -1.252688
 H         1.742842         0.578643        -2.335079
 H         5.296829        -1.617444        -1.259042
 H         4.898061        -1.611282         0.485383
 H         3.178828        -1.302725        -1.971053
