19
Iteration:  3167charge 0 multiplicity 1
 C        -0.211753        -0.008442         0.113526
 C         1.354845        -0.060186        -0.120000
 C         2.544560         0.597382         0.721453
 C         3.255542         0.374725        -0.663416
 C         1.946514         0.825417        -1.436134
 O         4.708707         0.331170        -0.821796
 C         4.627986        -1.071838        -0.451312
 C         3.181721        -1.124659        -0.887750
 O         1.885298        -1.449231        -0.204257
 H        -0.702604        -0.961973         0.067545
 H        -0.420938         0.448946         1.144747
 H        -0.791721         0.585831        -0.633277
 H         2.262696         1.677836         0.762634
 H         2.843740         0.122534         1.669491
 H         1.703832         1.898840        -1.399704
 H         1.722553         0.591786        -2.508100
 H         5.336752        -1.627218        -1.001531
 H         4.682804        -1.287280         0.646202
 H         3.042877        -1.527725        -1.899063
