19
Iteration:  3247charge 0 multiplicity 1
 C        -0.016538        -0.085063         0.300952
 C         1.307325         0.078692        -0.204419
 C         2.447831         0.594681         0.552594
 C         3.235107         0.375686        -0.769777
 C         1.833297         0.734187        -1.514663
 O         4.761419         0.274973        -0.764060
 C         4.603926        -1.046168        -0.261012
 C         3.150131        -1.082601        -0.898999
 O         1.887518        -1.374785        -0.291326
 H        -0.871371        -0.031670        -0.472397
 H        -0.156696        -0.897026         0.980133
 H         0.005299         0.872007         0.903123
 H         2.325720         1.585327         1.003719
 H         2.739548        -0.040726         1.416638
 H         1.587976         1.830064        -1.478543
 H         1.654376         0.182069        -2.422438
 H         5.340902        -1.822184        -0.663632
 H         4.638116        -1.017210         0.805538
 H         3.192597        -1.469822        -1.903298
