19
Iteration:  4259charge 0 multiplicity 1
 C        -0.082411        -0.088127         0.396008
 C         1.376607        -0.034304        -0.193213
 C         2.491445         0.722079         0.628191
 C         3.268847         0.363522        -0.754350
 C         1.910534         0.799171        -1.482943
 O         4.749719         0.302444        -0.838376
 C         4.607258        -1.069183        -0.219628
 C         3.109675        -1.174575        -0.882405
 O         1.769260        -1.412732        -0.450597
 H        -0.826448        -0.505014        -0.353320
 H        -0.017158        -0.741272         1.315411
 H        -0.303720         0.939846         0.786339
 H         2.340524         1.797035         0.640907
 H         2.887034         0.451313         1.660957
 H         1.779899         1.891052        -1.529929
 H         1.794196         0.266814        -2.475229
 H         5.493136        -1.638634        -0.541489
 H         4.627895        -1.004495         0.858315
 H         3.303613        -1.493812        -1.905039
