19
Iteration:  1162
 C        -0.104135         0.125211         0.332653
 C         1.302067        -0.017255        -0.186364
 C         2.489489         0.438530         0.700358
 C         3.230550         0.305088        -0.720189
 C         1.929242         0.937217        -1.302654
 O         4.734912         0.333280        -0.771924
 C         4.671103        -1.135658        -0.321673
 C         3.138578        -1.159066        -0.958008
 O         1.824157        -1.423909        -0.565275
 H        -0.446831        -0.624886         1.034843
 H        -0.095676         0.924298         1.015807
 H        -0.948935         0.144983        -0.454028
 H         2.443701         1.472346         1.060784
 H         2.739513        -0.280994         1.441815
 H         1.712854         2.083712        -1.098492
 H         1.616753         0.710600        -2.378926
 H         5.494385        -1.697886        -0.847578
 H         4.820211        -1.252829         0.780527
 H         3.405255        -1.536429        -1.957465
