19
Iteration:  2468
 C        -0.153553        -0.004279         0.304122
 C         1.305453         0.016809        -0.252361
 C         2.539955         0.487326         0.593963
 C         3.256260         0.346093        -0.767883
 C         1.849247         0.909468        -1.446633
 O         4.778222         0.261678        -0.718301
 C         4.620054        -1.126457        -0.270393
 C         3.156291        -1.088464        -0.861750
 O         1.861974        -1.351920        -0.404468
 H        -0.134434        -0.875431         1.074830
 H        -0.278381         0.804831         0.991222
 H        -1.066015        -0.176477        -0.360337
 H         2.431328         1.578535         0.847700
 H         3.016341        -0.079651         1.446927
 H         1.780332         2.014621        -1.418170
 H         1.504442         0.500910        -2.395889
 H         5.365525        -1.693321        -0.933099
 H         4.669163        -1.296314         0.784129
 H         3.156439        -1.394194        -1.923631
