19
Iteration:  1761charge 0 multiplicity 1
 C        -0.103237         0.015734         0.234426
 C         1.335063         0.011809        -0.152928
 C         2.490723         0.585447         0.737381
 C         3.198280         0.306258        -0.661514
 C         2.038849         0.946539        -1.304891
 O         4.639106         0.312906        -0.751867
 C         4.616949        -1.176275        -0.525853
 C         3.183582        -1.090126        -0.967861
 O         1.853930        -1.485073        -0.366884
 H        -0.433748        -0.782823         0.786193
 H        -0.483761         0.936821         0.549771
 H        -0.617055        -0.146810        -0.777239
 H         2.518046         1.636387         1.009046
 H         2.766393        -0.105972         1.528868
 H         1.775623         1.936624        -0.937930
 H         1.819410         1.000008        -2.356822
 H         5.383417        -1.720141        -1.046515
 H         4.806524        -1.315417         0.567865
 H         3.023448        -1.456492        -1.984678
