19
Iteration:  2501charge 0 multiplicity 1
 C        -0.029268        -0.096151         0.194936
 C         1.443464        -0.023466        -0.129808
 C         2.500711         0.601177         0.712999
 C         3.273212         0.383774        -0.661603
 C         2.005679         0.900888        -1.377812
 O         4.716595         0.305874        -0.792397
 C         4.508872        -1.117274        -0.376723
 C         3.028485        -1.119165        -0.945266
 O         1.786271        -1.392881        -0.364743
 H         0.070292        -0.520144         1.261388
 H        -0.375565         0.883775         0.050738
 H        -0.548922        -0.793961        -0.519758
 H         2.238546         1.675240         0.593002
 H         2.936860         0.333173         1.718905
 H         1.916702         2.007420        -1.457821
 H         1.700610         0.362800        -2.256099
 H         5.374741        -1.785985        -0.764183
 H         4.392413        -1.337591         0.659422
 H         3.042791        -1.364912        -2.028359
