19
Iteration:  4183
 C        -0.191135         0.024903         0.113256
 C         1.359139         0.011704        -0.160995
 C         2.493112         0.618038         0.726900
 C         3.189078         0.362630        -0.637247
 C         1.914652         0.743372        -1.449924
 O         4.709698         0.366761        -0.902314
 C         4.722179        -1.103215        -0.473371
 C         3.183245        -1.156254        -0.764621
 O         1.872010        -1.444505        -0.199236
 H        -0.785691         0.147307        -0.812989
 H        -0.459188        -0.878206         0.694063
 H        -0.385865         0.960313         0.663608
 H         2.368189         1.643300         0.920059
 H         2.647975         0.162478         1.714538
 H         1.618072         1.835201        -1.341913
 H         1.638158         0.221682        -2.389217
 H         5.318983        -1.828552        -1.056091
 H         4.980279        -1.146548         0.547929
 H         3.281594        -1.463322        -1.817703
