19
Iteration:   329charge 0 multiplicity 1
 C        -0.028796         0.020093         0.158274
 C         1.363514        -0.016845        -0.104035
 C         2.584006         0.461468         0.797384
 C         3.222956         0.350901        -0.691314
 C         1.932721         0.947882        -1.288970
 O         4.652526         0.306325        -0.756140
 C         4.576164        -1.153910        -0.389677
 C         3.118590        -1.103686        -0.967456
 O         1.801167        -1.371000        -0.491986
 H        -0.019622        -0.524851         1.181843
 H        -0.413777         1.017323         0.432423
 H        -0.572488        -0.411643        -0.668624
 H         2.621607         1.512135         1.184768
 H         2.946366        -0.222569         1.625549
 H         1.721638         2.043318        -1.306955
 H         1.542091         0.697670        -2.323073
 H         5.123451        -1.723236        -1.189816
 H         4.923447        -1.502804         0.584377
 H         3.203481        -1.495450        -1.980595
