19
Iteration:  1225charge 0 multiplicity 1
 C        -0.163845        -0.032307         0.216465
 C         1.323926         0.051747        -0.178652
 C         2.495522         0.575349         0.698232
 C         3.186477         0.355656        -0.650852
 C         2.028925         1.001086        -1.331377
 O         4.697675         0.223155        -0.731627
 C         4.636959        -1.223173        -0.481093
 C         3.079379        -1.053666        -1.001881
 O         1.904246        -1.418798        -0.342912
 H        -0.163265        -0.740101         1.015879
 H        -0.466769         0.938385         0.569999
 H        -0.773827        -0.498134        -0.592052
 H         2.488360         1.645453         1.083876
 H         2.884319        -0.104600         1.502257
 H         1.999065         2.017095        -1.011647
 H         1.839387         0.643456        -2.309809
 H         5.421146        -1.715193        -1.075791
 H         4.763910        -1.527326         0.566416
 H         2.897461        -1.201537        -2.064684
