19
Iteration:  2964
 C        -0.096591         0.010011         0.309458
 C         1.349738         0.027531        -0.170822
 C         2.565826         0.514064         0.646342
 C         3.240723         0.323924        -0.743256
 C         1.886487         0.833034        -1.427709
 O         4.712180         0.346526        -0.802032
 C         4.603622        -1.063573        -0.257706
 C         3.154347        -1.151183        -0.884577
 O         1.800497        -1.388708        -0.482186
 H        -0.216124        -0.821060         1.040914
 H        -0.392911         0.901180         0.891062
 H        -0.653190        -0.305795        -0.629489
 H         2.521775         1.476435         1.128613
 H         2.867028        -0.229176         1.442779
 H         1.665448         1.871200        -1.142642
 H         1.632863         0.427779        -2.391720
 H         5.459065        -1.694983        -0.599113
 H         4.716751        -0.918127         0.833976
 H         3.313794        -1.530502        -1.955452
