19
Iteration:   538
 C        -0.027732        -0.021120         0.356381
 C         1.345645         0.032896        -0.183035
 C         2.444082         0.528484         0.682974
 C         3.316259         0.399230        -0.635353
 C         1.991894         0.871406        -1.331770
 O         4.731230         0.299616        -0.758017
 C         4.478584        -1.228569        -0.440171
 C         3.096812        -1.058005        -0.977786
 O         1.828064        -1.404099        -0.498857
 H         0.125237        -0.771118         1.135667
 H        -0.515084         0.836202         0.903363
 H        -0.662584        -0.325607        -0.445473
 H         2.384457         1.597747         0.911258
 H         2.675111         0.055966         1.657361
 H         1.963678         2.007628        -1.284695
 H         1.860899         0.570882        -2.377368
 H         5.291479        -1.710426        -0.894995
 H         4.601333        -1.354917         0.642002
 H         3.148388        -1.104053        -2.056366
