19
Iteration:   784
 C        -0.140938         0.051276         0.167360
 C         1.357393        -0.042465        -0.137988
 C         2.564526         0.527192         0.822376
 C         3.210711         0.372232        -0.612076
 C         1.994142         0.863463        -1.332355
 O         4.662340         0.306877        -0.792455
 C         4.713318        -1.147294        -0.527121
 C         3.115024        -1.099112        -0.902004
 O         1.765275        -1.425788        -0.418091
 H        -0.609313        -0.823343         0.602713
 H        -0.162322         0.853978         0.870453
 H        -0.628876         0.276746        -0.735022
 H         2.399127         1.612118         1.117994
 H         2.877104        -0.285365         1.525590
 H         1.610028         1.870439        -1.085106
 H         1.870801         0.546726        -2.343659
 H         5.552072        -1.614894        -1.118390
 H         4.976468        -1.166773         0.511950
 H         3.068563        -1.249861        -1.974009
