19
Iteration:  2924
 C        -0.078197         0.074507         0.328115
 C         1.339379        -0.024955        -0.189339
 C         2.478073         0.513576         0.623143
 C         3.192778         0.388277        -0.736126
 C         1.928527         0.840499        -1.474156
 O         4.689966         0.321544        -0.780934
 C         4.598630        -1.095572        -0.293437
 C         3.205763        -1.107723        -0.858982
 O         1.881540        -1.471805        -0.417772
 H        -0.281650        -1.007939         0.621560
 H        -0.211401         0.781350         1.082351
 H        -0.816639         0.490159        -0.322691
 H         2.215863         1.511826         1.047786
 H         2.996073        -0.092758         1.417651
 H         1.576162         1.850073        -1.188174
 H         1.805481         0.643957        -2.528494
 H         5.300480        -1.784113        -0.812724
 H         4.634219        -1.297324         0.746282
 H         3.229212        -1.332325        -1.937915
