19
Iteration:  1474charge 0 multiplicity 1
 C        -0.108187        -0.090830         0.347133
 C         1.335996         0.102508        -0.164993
 C         2.565345         0.541367         0.729340
 C         3.254005         0.370745        -0.635579
 C         1.929538         0.884562        -1.373103
 O         4.701458         0.270471        -0.674555
 C         4.548395        -1.237962        -0.461536
 C         3.164247        -1.053590        -1.036945
 O         1.829700        -1.330488        -0.472022
 H         0.128369        -0.267833         1.390357
 H        -0.589827         1.047919         0.094586
 H        -0.514649        -0.912155        -0.178632
 H         2.294735         1.593607         1.021001
 H         2.846009        -0.287016         1.395829
 H         1.641003         1.962222        -1.418143
 H         1.667798         0.468744        -2.388133
 H         5.332604        -1.734807        -1.116113
 H         4.685788        -1.498067         0.604391
 H         3.305817        -1.186522        -2.167724
