19
Iteration:  4681charge 0 multiplicity 1
 C        -0.116651         0.007153         0.087144
 C         1.331441        -0.061528        -0.085553
 C         2.490019         0.626901         0.716033
 C         3.212679         0.331346        -0.721427
 C         1.951588         0.854621        -1.379582
 O         4.672464         0.352080        -0.843915
 C         4.709697        -1.114480        -0.399495
 C         3.131515        -1.178112        -0.844097
 O         1.848117        -1.428500        -0.269003
 H        -0.633632         0.095304        -0.882528
 H        -0.621658        -0.782114         0.656093
 H        -0.238328         0.926956         0.672937
 H         2.378214         1.713415         0.802044
 H         2.887852         0.129923         1.592117
 H         1.744878         1.953558        -1.288106
 H         1.605310         0.456598        -2.358711
 H         5.470318        -1.723146        -0.938104
 H         5.012259        -1.265196         0.699766
 H         3.110692        -1.452313        -1.879488
