19
Iteration:  4963charge 0 multiplicity 1
 C        -0.135367         0.035985         0.163666
 C         1.346003         0.024940        -0.151548
 C         2.486650         0.536961         0.715416
 C         3.193956         0.393202        -0.649489
 C         2.043850         0.765066        -1.437742
 O         4.672136         0.346262        -0.826940
 C         4.630199        -1.091556        -0.379182
 C         3.141985        -1.148746        -0.820048
 O         1.848414        -1.456982        -0.318491
 H        -0.584628        -0.684490        -0.511224
 H        -0.367985        -0.162728         1.202336
 H        -0.515625         1.102098        -0.139249
 H         2.343276         1.604837         0.997331
 H         2.883581        -0.169770         1.415294
 H         1.935716         1.899692        -1.430519
 H         1.842640         0.513314        -2.469756
 H         5.271058        -1.775070        -1.046365
 H         4.817805        -0.953363         0.719768
 H         3.126450        -1.372289        -1.956403
