19
Iteration:  4002
 C        -0.055513        -0.034739         0.060901
 C         1.383690        -0.048685        -0.115558
 C         2.515568         0.767233         0.734139
 C         3.184347         0.281156        -0.642497
 C         1.977490         0.810243        -1.324037
 O         4.621104         0.324204        -0.917079
 C         4.678979        -1.092174        -0.452062
 C         3.143684        -1.156425        -0.789203
 O         1.844901        -1.456049        -0.262528
 H        -0.567453         0.136599        -0.911402
 H        -0.537406        -0.951473         0.455815
 H        -0.498088         0.592669         0.863967
 H         2.279375         1.884096         0.747021
 H         2.770190         0.426090         1.749241
 H         1.644683         1.805881        -1.326099
 H         1.816838         0.406970        -2.335269
 H         5.225854        -1.739626        -1.034298
 H         5.008613        -1.077055         0.575371
 H         3.034026        -1.274803        -1.825385
