19
Iteration:   291charge 0 multiplicity 1
 C        -0.165300        -0.054016         0.169759
 C         1.374163        -0.035092        -0.163825
 C         2.464345         0.580168         0.793769
 C         3.184283         0.400224        -0.639653
 C         2.021660         1.051532        -1.317093
 O         4.753962         0.207081        -0.698978
 C         4.586377        -1.229581        -0.619212
 C         3.115543        -1.050592        -1.001489
 O         1.895245        -1.433461        -0.309638
 H        -0.275637        -0.140250         1.246378
 H        -0.550414         0.994706         0.042705
 H        -0.814884        -0.895135        -0.179852
 H         2.262387         1.601242         1.195016
 H         2.691038         0.069711         1.732318
 H         1.865000         2.182326        -1.193903
 H         1.982424         0.826024        -2.462526
 H         5.195518        -1.607494        -1.425790
 H         4.856576        -1.706375         0.361050
 H         3.001947        -1.235781        -2.098450
