19
Iteration:  4512
 C        -0.106588        -0.053834         0.104883
 C         1.378224        -0.007122        -0.192872
 C         2.520403         0.544303         0.711063
 C         3.271081         0.436966        -0.625337
 C         1.968174         0.907560        -1.420664
 O         4.687875         0.267742        -0.834858
 C         4.628977        -1.098090        -0.470918
 C         3.050040        -1.101802        -0.875231
 O         1.869190        -1.404116        -0.152197
 H        -0.517308        -0.999907        -0.307427
 H        -0.420794        -0.080107         1.173665
 H        -0.716154         0.831643        -0.322097
 H         2.217137         1.580719         1.027367
 H         2.848671        -0.023007         1.557819
 H         1.466728         1.927132        -1.446374
 H         2.003384         0.476148        -2.438623
 H         5.199342        -1.804547        -1.117458
 H         5.024148        -1.451282         0.560539
 H         3.031357        -1.383487        -1.915977
