19
Iteration:  1644charge 0 multiplicity 1
 C        -0.051900         0.004128         0.342448
 C         1.358384        -0.024432        -0.197208
 C         2.515448         0.477170         0.728590
 C         3.275842         0.379385        -0.662972
 C         1.963068         0.881520        -1.284460
 O         4.703170         0.346223        -0.743734
 C         4.636046        -1.141155        -0.385803
 C         3.100801        -1.142362        -1.023280
 O         1.777787        -1.367019        -0.554505
 H        -0.308607        -0.636120         1.306826
 H        -0.289533         1.019907         0.533895
 H        -0.876018        -0.246054        -0.438555
 H         2.243885         1.563068         0.868385
 H         2.935894        -0.033185         1.629602
 H         1.810510         1.918838        -1.208879
 H         1.618945         0.582196        -2.255196
 H         5.431767        -1.778790        -0.731540
 H         4.455569        -1.356617         0.651238
 H         3.280977        -1.486113        -2.057478
