19
Iteration:  4595
 C        -0.052184         0.040112         0.347893
 C         1.417051        -0.027633        -0.160949
 C         2.464642         0.605429         0.673875
 C         3.203986         0.317166        -0.765012
 C         1.942482         0.825271        -1.446315
 O         4.662706         0.334585        -0.789567
 C         4.597796        -1.043029        -0.268591
 C         3.228556        -1.205852        -0.967250
 O         1.817528        -1.465636        -0.436930
 H        -0.793157        -0.204560        -0.396638
 H        -0.056581        -0.614324         1.186449
 H        -0.208513         1.043786         0.683081
 H         2.341764         1.713717         0.783261
 H         2.742442         0.218981         1.660368
 H         1.592954         1.794628        -1.176676
 H         1.827713         0.625155        -2.493886
 H         5.383472        -1.671858        -0.516862
 H         4.269967        -1.001024         0.687507
 H         3.159550        -1.527274        -2.021820
