19
Iteration:  4205charge 0 multiplicity 1
 C        -0.085523         0.062525         0.215719
 C         1.408317        -0.105463        -0.104421
 C         2.493368         0.657227         0.551966
 C         3.159158         0.308024        -0.718115
 C         1.990432         0.781932        -1.392882
 O         4.609303         0.354992        -0.825286
 C         4.638303        -1.006851        -0.339012
 C         3.166271        -1.206139        -0.927195
 O         1.850468        -1.468458        -0.222255
 H        -0.670429         0.261282        -0.706791
 H        -0.398791        -0.938164         0.585239
 H        -0.392633         0.890826         0.873607
 H         2.425692         1.692557         0.673003
 H         2.878899         0.225515         1.507406
 H         1.781216         1.882436        -1.266557
 H         1.921234         0.393491        -2.440743
 H         5.400947        -1.619462        -0.856010
 H         4.807967        -0.995579         0.712023
 H         3.211653        -1.454012        -2.006658
