19
Iteration:  1341charge 0 multiplicity 1
 C        -0.057488        -0.095666         0.317786
 C         1.348437         0.010823        -0.155195
 C         2.586285         0.593228         0.677669
 C         3.297278         0.378645        -0.638244
 C         1.967232         0.906099        -1.384833
 O         4.732915         0.266764        -0.709444
 C         4.532416        -1.138292        -0.410132
 C         3.077998        -1.096672        -1.009588
 O         1.782588        -1.348416        -0.481538
 H        -0.062483        -0.916142         1.019175
 H        -0.465186         0.869356         0.687522
 H        -0.691585        -0.424512        -0.411909
 H         2.481180         1.598454         0.993796
 H         2.701879         0.039493         1.599561
 H         1.756225         1.935121        -1.246324
 H         1.774553         0.366121        -2.299215
 H         5.259229        -1.795819        -0.855632
 H         4.319858        -1.406907         0.647931
 H         3.223936        -1.228531        -2.110962
