19
Iteration:  4061charge 0 multiplicity 1
 C        -0.000866         0.006131         0.297832
 C         1.389821        -0.065063        -0.163531
 C         2.503601         0.608497         0.600403
 C         3.186540         0.300988        -0.823036
 C         1.966700         0.873571        -1.445533
 O         4.612485         0.379392        -0.726098
 C         4.587409        -1.081070        -0.297969
 C         3.100263        -1.168917        -0.948289
 O         1.867342        -1.451855        -0.304405
 H        -0.558130        -0.742183        -0.293501
 H         0.078204        -0.408702         1.293526
 H        -0.324482         1.000858         0.024261
 H         2.359132         1.663411         0.683300
 H         2.734652         0.072102         1.551886
 H         1.654580         1.928014        -1.129376
 H         1.705664         0.461266        -2.460803
 H         5.417258        -1.703838        -0.810478
 H         4.689240        -1.009816         0.751239
 H         3.330503        -1.369080        -2.017342
