19
Iteration:  3871
 C        -0.150786        -0.022448         0.157180
 C         1.374208        -0.065053        -0.020181
 C         2.555041         0.671451         0.648964
 C         3.211065         0.360421        -0.677811
 C         1.984080         0.797773        -1.381998
 O         4.625232         0.314085        -0.789989
 C         4.642643        -1.125124        -0.430241
 C         3.178947        -1.125049        -0.913046
 O         1.814299        -1.409484        -0.310020
 H        -0.523657        -0.941812        -0.286962
 H        -0.316591         0.018751         1.299283
 H        -0.418987         0.758899        -0.708145
 H         2.310118         1.786242         0.677767
 H         3.128119         0.431338         1.620954
 H         1.653679         1.875985        -1.256381
 H         1.776187         0.376141        -2.381178
 H         5.378052        -1.616165        -0.996826
 H         4.957831        -1.032690         0.637468
 H         3.045924        -1.613084        -1.852161
