19
Iteration:  1062
 C        -0.121779        -0.077771         0.219220
 C         1.381647         0.082244        -0.140060
 C         2.547576         0.475879         0.705377
 C         3.277772         0.330953        -0.570468
 C         2.049982         0.961781        -1.310271
 O         4.647751         0.308575        -0.746884
 C         4.548574        -1.221448        -0.471738
 C         3.064712        -1.058805        -1.066010
 O         1.834065        -1.354182        -0.401527
 H        -0.406661        -0.412372         1.245472
 H        -0.592258         0.938567         0.094279
 H        -0.648822        -0.924415        -0.460213
 H         2.622041         1.482557         1.147406
 H         2.797934        -0.238131         1.576984
 H         1.852640         2.140718        -1.048344
 H         2.127583         0.533760        -2.354731
 H         5.354023        -1.792065        -0.983258
 H         4.674000        -1.269058         0.663079
 H         3.095634        -1.216617        -2.158183
