19
Iteration:  3068
 C        -0.119739         0.041803         0.244470
 C         1.368274        -0.021463        -0.127164
 C         2.478249         0.558733         0.741229
 C         3.226283         0.351443        -0.638629
 C         1.989444         0.841520        -1.353756
 O         4.653693         0.297415        -0.858152
 C         4.632128        -1.080899        -0.380116
 C         3.182880        -1.110377        -0.938556
 O         1.863036        -1.493997        -0.420059
 H        -0.417473        -0.065038         1.305125
 H        -0.504701         1.015258        -0.276328
 H        -0.659599        -0.745189        -0.300648
 H         2.173901         1.657298         1.027765
 H         2.787291         0.109461         1.703130
 H         1.720433         1.907399        -1.254788
 H         1.812651         0.672223        -2.488493
 H         5.435072        -1.653416        -0.808986
 H         4.648733        -1.074708         0.745180
 H         3.217942        -1.231598        -2.030997
