19
Iteration:  4191
 C        -0.172724         0.037122         0.140392
 C         1.325616        -0.012709        -0.121490
 C         2.487309         0.648133         0.712063
 C         3.239792         0.330509        -0.696764
 C         1.981636         0.743195        -1.436912
 O         4.639159         0.350477        -0.883047
 C         4.718329        -1.066699        -0.421208
 C         3.116797        -1.146737        -0.798543
 O         1.903998        -1.478372        -0.235588
 H        -0.677546         0.172927        -0.917190
 H        -0.628139        -0.863097         0.729008
 H        -0.294517         0.905923         0.864939
 H         2.248960         1.804734         0.813256
 H         2.886646         0.219443         1.741341
 H         1.666688         1.851229        -1.371886
 H         1.738485         0.362564        -2.442851
 H         5.493613        -1.609931        -1.114648
 H         4.960496        -1.197374         0.634252
 H         3.124135        -1.573691        -1.823241
