19
Iteration:  1975
 C        -0.003220        -0.032847         0.369281
 C         1.374944         0.038224        -0.207142
 C         2.514621         0.585883         0.637397
 C         3.253990         0.331212        -0.697758
 C         1.966363         0.897018        -1.428318
 O         4.633133         0.287292        -0.648883
 C         4.493576        -1.146912        -0.361916
 C         3.093496        -1.089381        -1.040618
 O         1.886195        -1.458402        -0.443957
 H        -0.105807        -0.957964         0.833410
 H        -0.101110         0.928616         1.029812
 H        -0.756283         0.073290        -0.417184
 H         2.450384         1.687011         0.775975
 H         2.922286         0.147399         1.593621
 H         1.710269         1.910959        -1.090447
 H         1.860136         0.830645        -2.471951
 H         5.183567        -1.823260        -0.817044
 H         4.433643        -1.392773         0.710043
 H         3.335563        -1.245604        -2.172311
