19
Iteration:  4071
 C         0.016225        -0.024648         0.363390
 C         1.380368        -0.017226        -0.199657
 C         2.483650         0.608718         0.612383
 C         3.155184         0.318361        -0.716652
 C         1.900951         0.809308        -1.429960
 O         4.665350         0.360723        -0.765591
 C         4.589946        -1.060170        -0.265673
 C         3.217932        -1.180123        -0.929780
 O         1.829642        -1.448891        -0.454540
 H        -0.672978        -0.766505        -0.145686
 H        -0.052045         0.095561         1.456091
 H        -0.355202         1.013237         0.165435
 H         2.419806         1.706127         0.645511
 H         2.765507         0.381701         1.651779
 H         1.715183         1.933392        -1.354750
 H         1.731390         0.453560        -2.491109
 H         5.494024        -1.547888        -0.741687
 H         4.548509        -1.266101         0.758767
 H         3.123133        -1.624420        -1.893706
