19
Iteration:   681charge 0 multiplicity 1
 C        -0.100201        -0.108671         0.372892
 C         1.343650        -0.048902        -0.158258
 C         2.507592         0.587907         0.635175
 C         3.287293         0.420457        -0.694084
 C         1.995062         1.000086        -1.405760
 O         4.800390         0.261883        -0.671782
 C         4.477606        -1.214425        -0.443820
 C         3.085295        -1.022215        -1.010427
 O         1.838206        -1.398381        -0.436463
 H        -0.002022        -0.276466         1.425974
 H        -0.629527         0.815606         0.111581
 H        -0.545538        -0.991440        -0.103282
 H         2.329944         1.493024         1.222371
 H         2.771634        -0.125614         1.416138
 H         1.742266         1.993797        -1.126549
 H         1.784986         0.806300        -2.522560
 H         5.097420        -1.741951        -1.079880
 H         4.633724        -1.467971         0.644003
 H         3.018051        -1.266216        -2.064776
