19
Iteration:  2129charge 0 multiplicity 1
 C        -0.031035        -0.042247         0.292553
 C         1.346158         0.124778        -0.198656
 C         2.491712         0.451389         0.658253
 C         3.214639         0.395215        -0.695096
 C         1.909113         0.937972        -1.388447
 O         4.753645         0.260319        -0.738098
 C         4.509825        -1.197373        -0.325222
 C         3.120710        -1.060347        -1.010252
 O         1.882612        -1.373427        -0.407275
 H         0.056285        -0.238362         1.301121
 H        -0.544713         0.907500         0.159106
 H        -0.520270        -0.901482        -0.257542
 H         2.250841         1.458731         1.157144
 H         2.698345        -0.372596         1.424885
 H         1.751563         1.932186        -1.202735
 H         1.685173         0.638894        -2.401821
 H         5.281360        -1.738832        -0.835698
 H         4.637113        -1.356674         0.775343
 H         3.361529        -1.403807        -2.053268
