19
Iteration:  2527
 C        -0.238198         0.015841         0.161943
 C         1.355233         0.041814        -0.176202
 C         2.518877         0.547305         0.685662
 C         3.283510         0.375037        -0.671723
 C         1.920577         0.925833        -1.348073
 O         4.689983         0.298011        -0.850560
 C         4.670223        -1.176191        -0.407204
 C         3.131812        -1.113820        -0.828939
 O         1.911663        -1.449599        -0.314753
 H        -0.306491        -0.006989         1.229426
 H        -0.645131         0.964945        -0.333971
 H        -0.729368        -0.823073        -0.246430
 H         2.499975         1.560974         1.199121
 H         2.692657        -0.263105         1.452115
 H         1.655512         1.970651        -1.358091
 H         1.639502         0.477973        -2.353868
 H         5.413593        -1.652529        -0.975712
 H         4.831428        -1.557440         0.665529
 H         3.190784        -1.211686        -1.876145
