19
Iteration:  3945
 C        -0.058981         0.025138         0.358296
 C         1.396713        -0.059577        -0.179285
 C         2.553585         0.690697         0.543401
 C         3.217965         0.325224        -0.734805
 C         1.877910         0.766889        -1.418317
 O         4.670232         0.339917        -0.752499
 C         4.626878        -1.057416        -0.249593
 C         3.181081        -1.150184        -0.862743
 O         1.808259        -1.460727        -0.492151
 H        -0.765226         0.020468        -0.476911
 H        -0.193879        -0.998069         0.901654
 H        -0.305679         1.035537         0.845784
 H         2.162997         1.711309         0.720722
 H         2.993404         0.279139         1.516353
 H         1.508065         1.819926        -1.266826
 H         1.808443         0.194155        -2.290844
 H         5.422545        -1.701777        -0.696234
 H         4.579671        -1.161193         0.860444
 H         3.162446        -1.334052        -1.947215
