19
Iteration:   430charge 0 multiplicity 1
 C        -0.121053        -0.046117         0.186318
 C         1.315227         0.105806        -0.160581
 C         2.532401         0.511195         0.701465
 C         3.217721         0.349532        -0.670942
 C         1.981031         0.949741        -1.293490
 O         4.682118         0.215814        -0.670267
 C         4.643598        -1.221535        -0.562900
 C         3.141926        -1.071366        -1.002108
 O         1.837097        -1.360577        -0.319088
 H        -0.236301        -0.835796         0.916746
 H        -0.545205         0.917230         0.633514
 H        -0.646427        -0.513271        -0.696265
 H         2.471694         1.632023         0.988380
 H         2.953694        -0.074485         1.578248
 H         1.824734         2.090214        -1.126757
 H         1.530285         0.814607        -2.262528
 H         5.306665        -1.741236        -1.241180
 H         4.971532        -1.423458         0.500409
 H         3.100223        -1.054914        -2.087484
