19
Iteration:  2157
 C        -0.115942        -0.024007         0.259162
 C         1.339287        -0.013390        -0.101266
 C         2.624603         0.534048         0.643992
 C         3.218945         0.350843        -0.706106
 C         1.994486         0.891279        -1.306266
 O         4.703698         0.301000        -0.772564
 C         4.552439        -1.104559        -0.290490
 C         3.144458        -1.125786        -0.957509
 O         1.755203        -1.415680        -0.561980
 H        -0.312488        -0.593275         1.250886
 H        -0.198742         1.078437         0.586691
 H        -0.759265        -0.334834        -0.536579
 H         2.335827         1.530963         0.898964
 H         3.072832         0.088592         1.504475
 H         1.869437         2.019515        -1.015662
 H         1.607740         0.655512        -2.306847
 H         5.411682        -1.726885        -0.655565
 H         4.641783        -1.156866         0.818373
 H         3.454359        -1.407605        -1.958539
