19
Iteration:  3792
 C        -0.027125        -0.017454         0.258981
 C         1.414089         0.006121        -0.109863
 C         2.578393         0.706410         0.622485
 C         3.240159         0.329631        -0.728829
 C         1.862925         0.748972        -1.437385
 O         4.685220         0.320488        -0.831357
 C         4.555073        -1.116320        -0.248192
 C         3.096224        -1.109165        -0.881564
 O         1.840016        -1.421485        -0.393093
 H        -0.450211        -0.349742        -0.697772
 H        -0.025939        -0.915373         0.952754
 H        -0.388295         0.900827         0.743063
 H         2.374829         1.791686         0.736934
 H         2.717352         0.198473         1.608216
 H         1.711725         1.823024        -1.598639
 H         1.471659         0.205540        -2.288679
 H         5.297641        -1.788082        -0.702859
 H         4.678115        -1.007083         0.788654
 H         3.142535        -1.396776        -1.917972
