19
Iteration:   438charge 0 multiplicity 1
 C        -0.079089        -0.051444         0.143885
 C         1.339052         0.069054        -0.198035
 C         2.562182         0.524750         0.753366
 C         3.232630         0.355491        -0.646958
 C         1.979479         0.955380        -1.289595
 O         4.701441         0.258021        -0.722252
 C         4.631595        -1.203157        -0.581090
 C         3.097136        -1.063778        -0.925521
 O         1.805632        -1.374520        -0.333030
 H         0.023881        -0.756533         1.103473
 H        -0.562775         0.988575         0.342074
 H        -0.783192        -0.528921        -0.554153
 H         2.438684         1.614607         1.000843
 H         2.683324        -0.189535         1.600823
 H         1.699661         1.953299        -0.712156
 H         1.889511         0.684080        -2.385043
 H         5.210390        -1.796369        -1.313780
 H         4.716185        -1.511377         0.511236
 H         2.986727        -1.203293        -2.038349
