19
Iteration:  1011
 C        -0.105262         0.141787         0.316780
 C         1.373654        -0.053887        -0.166998
 C         2.607842         0.440155         0.763438
 C         3.206873         0.318083        -0.645396
 C         1.915993         0.864022        -1.345462
 O         4.669937         0.331322        -0.754141
 C         4.603962        -1.123084        -0.360223
 C         3.160356        -1.107513        -0.986774
 O         1.801651        -1.423678        -0.594114
 H        -0.348421        -0.767985         0.860025
 H        -0.106964         1.003294         0.919027
 H        -0.917092         0.302552        -0.424394
 H         2.607093         1.440584         1.166985
 H         2.983861        -0.117304         1.565846
 H         1.654917         1.870986        -1.107275
 H         1.813471         0.467665        -2.319232
 H         5.461318        -1.587059        -0.844633
 H         4.440063        -1.271285         0.691814
 H         3.272254        -1.198302        -2.107681
