19
Iteration:  2805
 C        -0.002198         0.037738         0.319374
 C         1.355885        -0.047075        -0.159762
 C         2.486864         0.528811         0.602855
 C         3.273787         0.326488        -0.699972
 C         1.950628         0.861973        -1.376293
 O         4.665090         0.384070        -0.702908
 C         4.679783        -1.024751        -0.317276
 C         3.084580        -1.175565        -0.964593
 O         1.726972        -1.512815        -0.485664
 H        -0.042246         0.240990         1.447288
 H        -0.465826         0.819743        -0.272674
 H        -0.710512        -0.726598         0.033242
 H         2.274540         1.555981         0.952980
 H         3.053651        -0.026736         1.399166
 H         1.865871         1.971940        -1.047197
 H         1.734739         0.834995        -2.486559
 H         5.541167        -1.545682        -0.902430
 H         4.804341        -1.272051         0.746915
 H         3.281703        -1.466124        -1.966922
