19
Iteration:  4827
 C        -0.096301         0.085637         0.052181
 C         1.383419        -0.019668        -0.156891
 C         2.480304         0.517291         0.791137
 C         3.192092         0.343768        -0.648426
 C         1.862299         0.840282        -1.407305
 O         4.683879         0.327772        -0.885869
 C         4.632795        -1.113522        -0.392915
 C         3.202232        -1.141971        -0.858621
 O         1.921155        -1.439668        -0.217897
 H        -0.656226        -0.248713        -0.847286
 H        -0.570073        -0.505807         0.885332
 H        -0.342929         1.139347         0.317564
 H         2.449896         1.681638         1.051176
 H         2.703490        -0.179852         1.716470
 H         1.677296         1.907444        -1.562766
 H         1.620207         0.361451        -2.389665
 H         5.347518        -1.646707        -1.062327
 H         4.622164        -1.122371         0.738875
 H         3.160911        -1.317451        -1.989744
