19
Iteration:  3835charge 0 multiplicity 1
 C        -0.156631         0.048332         0.095078
 C         1.325736         0.041569        -0.157265
 C         2.387696         0.474804         0.736190
 C         3.225212         0.375497        -0.739121
 C         1.949366         0.802285        -1.418297
 O         4.699145         0.330721        -0.903177
 C         4.713566        -1.112387        -0.448000
 C         3.148476        -1.104362        -0.820273
 O         1.915582        -1.421058        -0.103869
 H        -0.571483        -0.841681        -0.512560
 H        -0.458070         0.072669         1.203904
 H        -0.467446         1.077172        -0.156967
 H         2.318454         1.537140         1.029918
 H         2.809196        -0.194028         1.523794
 H         1.651389         1.872131        -1.263925
 H         1.811657         0.509164        -2.448071
 H         5.314397        -1.664051        -1.193697
 H         5.038163        -1.343691         0.535662
 H         3.167842        -1.463943        -1.836511
