19
Iteration:  1632
 C        -0.090789         0.049974         0.292158
 C         1.339075        -0.043828        -0.122146
 C         2.499206         0.571535         0.659110
 C         3.255036         0.281353        -0.674219
 C         1.879877         0.945401        -1.279562
 O         4.741707         0.286877        -0.672440
 C         4.650726        -1.159781        -0.427385
 C         3.163257        -1.091223        -1.075086
 O         1.795323        -1.430320        -0.487984
 H        -0.221367        -0.885996         0.987304
 H        -0.303100         0.880322         0.906426
 H        -0.775399        -0.123894        -0.622977
 H         2.476829         1.688363         0.763921
 H         2.747594         0.131776         1.667913
 H         1.694588         1.951294        -1.132602
 H         1.673068         0.605231        -2.257146
 H         5.433441        -1.637711        -0.957636
 H         4.769237        -1.239415         0.641833
 H         3.125553        -1.296105        -2.165079
