19
Iteration:  1197
 C        -0.018960        -0.056466         0.230805
 C         1.418018        -0.022429        -0.144626
 C         2.539680         0.526587         0.715899
 C         3.217240         0.389730        -0.700373
 C         1.971792         0.903880        -1.303467
 O         4.789163         0.339236        -0.758093
 C         4.515019        -1.209435        -0.363293
 C         3.024913        -1.072185        -0.967100
 O         1.769380        -1.365248        -0.471373
 H        -0.178063        -1.062959         0.742676
 H        -0.171206         0.899049         0.812613
 H        -0.741684         0.102922        -0.612644
 H         2.505344         1.538869         1.037370
 H         2.966480        -0.080595         1.474852
 H         1.801644         2.049681        -1.184923
 H         1.647595         0.453945        -2.303842
 H         5.322533        -1.792841        -0.852206
 H         4.503230        -1.303337         0.739239
 H         2.964921        -1.477804        -2.057007
