19
Iteration:  3756
 C        -0.021046        -0.024929         0.440608
 C         1.330275         0.005682        -0.238177
 C         2.467759         0.631126         0.484491
 C         3.248015         0.400766        -0.792633
 C         1.903254         0.850203        -1.543143
 O         4.781879         0.314593        -0.748064
 C         4.541031        -1.087972        -0.252783
 C         3.145403        -1.147967        -0.882369
 O         1.840581        -1.490369        -0.341219
 H        -1.071386        -0.070358        -0.078223
 H        -0.166099        -0.890690         1.049191
 H        -0.322693         0.785624         1.077217
 H         2.366399         1.694493         0.670223
 H         2.782058         0.146048         1.384248
 H         1.756887         1.883117        -1.306569
 H         1.654446         0.517065        -2.595671
 H         5.225352        -1.941763        -0.523346
 H         4.580605        -0.922564         0.785581
 H         3.432333        -1.489450        -1.890631
