19
Iteration:  2144
 C        -0.083104        -0.005380         0.290868
 C         1.402211        -0.031501        -0.211445
 C         2.539248         0.496630         0.725591
 C         3.309539         0.341379        -0.741145
 C         1.882579         0.943101        -1.329871
 O         4.756200         0.281741        -0.747883
 C         4.561749        -1.101654        -0.294686
 C         3.143711        -1.128439        -1.004960
 O         1.785108        -1.361570        -0.488207
 H        -0.172919        -0.572609         1.358755
 H        -0.593711         0.969740         0.305117
 H        -0.757872        -0.586242        -0.391496
 H         2.741978         1.533722         0.908090
 H         2.778147        -0.172744         1.564965
 H         1.513171         2.021682        -1.119051
 H         1.707392         0.659093        -2.425235
 H         5.358069        -1.849244        -0.565183
 H         4.298932        -1.050727         0.766195
 H         2.969820        -1.420340        -2.101780
