19
Iteration:   302charge 0 multiplicity 1
 C        -0.164450        -0.005694         0.206367
 C         1.284962        -0.061575        -0.118326
 C         2.498093         0.561862         0.789479
 C         3.296365         0.391773        -0.533386
 C         2.000687         0.993778        -1.349459
 O         4.759872         0.220666        -0.722926
 C         4.614839        -1.194311        -0.609947
 C         3.104014        -1.016509        -1.081743
 O         1.860778        -1.428361        -0.314099
 H        -0.194691        -0.316649         1.229510
 H        -0.698016         0.929120        -0.087253
 H        -0.681126        -0.746787        -0.490781
 H         2.417616         1.661119         0.793979
 H         2.753135        -0.081479         1.622242
 H         1.630783         2.011010        -1.007825
 H         1.963613         0.666102        -2.493027
 H         5.343707        -1.798949        -1.146086
 H         4.582352        -1.538998         0.468283
 H         2.913100        -1.071751        -2.183121
