19
Iteration:   194charge 0 multiplicity 1
 C        -0.090201        -0.021963         0.398903
 C         1.314304         0.037885        -0.114030
 C         2.528628         0.416053         0.641310
 C         3.242238         0.306304        -0.715419
 C         2.070830         0.933164        -1.367790
 O         4.669169         0.366411        -0.748434
 C         4.573561        -1.188018        -0.354973
 C         3.139272        -1.057186        -1.007458
 O         1.781521        -1.382538        -0.506548
 H        -0.257665        -1.039715         0.799509
 H        -0.311678         0.689717         1.305037
 H        -0.848489         0.227421        -0.458671
 H         2.599718         1.521317         0.818523
 H         2.944413         0.015714         1.585023
 H         1.780040         2.043454        -1.382983
 H         1.859362         0.605137        -2.420539
 H         5.282226        -1.827882        -0.894791
 H         4.716211        -1.291250         0.759327
 H         3.246806        -1.375383        -2.060570
