19
Iteration:  3010
 C        -0.087257        -0.091751         0.146971
 C         1.380266         0.034894        -0.118642
 C         2.477236         0.687739         0.716076
 C         3.298668         0.332863        -0.648726
 C         2.023234         0.841126        -1.311802
 O         4.672460         0.366676        -0.733038
 C         4.556323        -1.131199        -0.522842
 C         3.079929        -1.155592        -0.998583
 O         1.854460        -1.473433        -0.283586
 H        -0.372330        -0.002040         1.251829
 H        -0.456479         0.816303        -0.255083
 H        -0.464093        -0.970458        -0.408417
 H         2.387300         1.795347         0.699848
 H         2.651512         0.400620         1.811138
 H         1.772101         1.861355        -1.070257
 H         1.933547         0.511056        -2.292326
 H         5.311630        -1.636587        -1.201526
 H         4.634304        -1.508507         0.459954
 H         3.001996        -1.354314        -2.130056
