19
Iteration:    88
 C        -0.175607         0.105639         0.189757
 C         1.340023        -0.040327        -0.116766
 C         2.628530         0.438045         0.738328
 C         3.225728         0.298895        -0.655510
 C         1.892550         0.924326        -1.236876
 O         4.711141         0.308653        -0.858710
 C         4.712408        -1.042089        -0.410388
 C         3.127045        -1.130266        -0.906533
 O         1.776324        -1.430141        -0.489112
 H        -0.161660        -0.075005         1.264578
 H        -0.496616         1.086294         0.020114
 H        -0.818512        -0.668819        -0.150533
 H         2.611894         1.445563         1.129922
 H         2.876356        -0.318246         1.479611
 H         1.653103         1.913464        -1.021101
 H         1.682211         0.680398        -2.265169
 H         5.321614        -1.663401        -1.079548
 H         4.842112        -1.252111         0.637361
 H         3.249789        -1.432215        -1.939156
