19
Iteration:  4625
 C        -0.182941        -0.044939         0.219297
 C         1.326696         0.031556        -0.140686
 C         2.544013         0.557574         0.642972
 C         3.252170         0.382010        -0.723926
 C         1.962082         0.797036        -1.451460
 O         4.690974         0.313014        -0.800506
 C         4.714269        -1.091501        -0.398981
 C         3.136896        -1.133085        -0.764866
 O         1.806039        -1.342233        -0.340019
 H        -0.862691         0.059909        -0.691136
 H        -0.216111        -1.111750         0.630585
 H        -0.529193         0.682271         0.927318
 H         2.450634         1.598864         0.862650
 H         2.852605         0.083834         1.602990
 H         1.475793         1.796965        -1.281376
 H         1.878254         0.345718        -2.503136
 H         5.254620        -1.861062        -1.092304
 H         5.087243        -1.182478         0.718404
 H         3.187722        -1.498762        -1.770909
