19
Iteration:  4569
 C        -0.051015         0.004135         0.349260
 C         1.382764         0.003437        -0.228743
 C         2.559429         0.510081         0.617553
 C         3.195865         0.438642        -0.768148
 C         1.840868         0.796319        -1.495595
 O         4.717836         0.326605        -0.756677
 C         4.557582        -1.094132        -0.233439
 C         3.217614        -1.060672        -0.894798
 O         1.820101        -1.465160        -0.390802
 H        -0.811614        -0.664114        -0.178553
 H         0.009250        -0.065241         1.488582
 H        -0.284997         1.073717         0.129485
 H         2.452864         1.405576         1.185277
 H         2.934365        -0.355420         1.220039
 H         1.651891         1.931267        -1.454888
 H         1.719735         0.444365        -2.579780
 H         5.126951        -1.893421        -0.841396
 H         4.534061        -1.173080         0.911786
 H         3.193472        -1.236206        -1.935012
