19
Iteration:   461
 C        -0.091701         0.035249         0.216992
 C         1.356671        -0.028154        -0.043370
 C         2.487336         0.438615         0.804254
 C         3.256587         0.413582        -0.603668
 C         2.118841         0.965942        -1.330167
 O         4.684629         0.303264        -0.827647
 C         4.553782        -1.179573        -0.507830
 C         3.105351        -1.092679        -1.001980
 O         1.796701        -1.434142        -0.413103
 H        -0.510726        -0.321610         1.230968
 H        -0.468283         1.052287        -0.200433
 H        -0.524125        -0.668337        -0.540347
 H         2.168873         1.498972         1.065097
 H         2.953903        -0.157370         1.635188
 H         1.811648         2.078071        -1.075672
 H         1.869886         0.457574        -2.260791
 H         5.190746        -1.775752        -1.166855
 H         4.825602        -1.211258         0.598737
 H         3.108896        -1.072827        -2.101706
