19
Iteration:  1386charge 0 multiplicity 1
 C        -0.085816         0.047680         0.222463
 C         1.344288        -0.075956        -0.159906
 C         2.588174         0.494740         0.716865
 C         3.219263         0.427688        -0.642292
 C         1.970065         0.868005        -1.369360
 O         4.720349         0.354723        -0.735551
 C         4.611500        -1.124749        -0.473563
 C         3.108615        -1.179928        -0.951817
 O         1.757956        -1.441197        -0.372394
 H        -0.456100        -0.868949         0.542464
 H        -0.269503         0.950846         0.887201
 H        -0.745003         0.309171        -0.517542
 H         2.517129         1.560907         0.939270
 H         2.938240        -0.046310         1.611101
 H         1.645733         1.843418        -1.083697
 H         1.955739         0.673761        -2.422579
 H         5.315280        -1.672600        -1.109218
 H         4.912677        -1.219196         0.576436
 H         3.027014        -1.218124        -2.061327
