19
Iteration:  4387charge 0 multiplicity 1
 C        -0.065061        -0.045237         0.257714
 C         1.422472         0.045204        -0.141403
 C         2.566363         0.658630         0.619598
 C         3.185522         0.371700        -0.732548
 C         1.801167         0.731963        -1.464944
 O         4.741828         0.261832        -0.758577
 C         4.617391        -1.079884        -0.300306
 C         3.136210        -1.136602        -0.890840
 O         1.842301        -1.364229        -0.358652
 H        -0.690599        -0.282592        -0.638483
 H        -0.137771        -0.890888         0.935977
 H        -0.513001         0.839700         0.656168
 H         2.424007         1.730141         0.781786
 H         2.842713         0.108360         1.575343
 H         1.674085         1.797924        -1.374950
 H         1.534620         0.431607        -2.445569
 H         5.303081        -1.791000        -0.847097
 H         4.608219        -1.083915         0.805852
 H         3.212654        -1.345798        -1.997716
