19
Iteration:   689charge 0 multiplicity 1
 C        -0.118803        -0.123057         0.399505
 C         1.331190        -0.022096        -0.159998
 C         2.472295         0.536675         0.628874
 C         3.315761         0.413923        -0.646591
 C         1.945572         1.017076        -1.411076
 O         4.770654         0.212665        -0.684479
 C         4.577326        -1.210673        -0.481603
 C         3.118869        -1.019128        -0.990633
 O         1.846123        -1.360820        -0.449982
 H        -0.251679        -0.336204         1.555060
 H        -0.659481         0.897954         0.174035
 H        -0.570685        -0.969059        -0.113103
 H         2.379819         1.608445         0.775455
 H         2.752011         0.000531         1.520872
 H         1.713846         2.077269        -1.169112
 H         1.925188         0.862573        -2.518682
 H         5.266875        -1.934303        -0.947957
 H         4.399146        -1.330919         0.664585
 H         3.045155        -1.195808        -2.111556
