19
Iteration:  2108charge 0 multiplicity 1
 C        -0.121753        -0.034275         0.280284
 C         1.329894        -0.078342        -0.185584
 C         2.574365         0.625964         0.708131
 C         3.259294         0.376385        -0.609209
 C         2.035094         0.942034        -1.406381
 O         4.695949         0.290670        -0.699362
 C         4.601059        -1.190244        -0.466110
 C         3.077085        -1.075591        -0.934665
 O         1.789609        -1.408046        -0.443644
 H        -0.133566        -0.125734         1.348740
 H        -0.700927         0.821722        -0.016031
 H        -0.548235        -1.015161        -0.113783
 H         2.507825         1.741389         0.916664
 H         2.687259         0.086543         1.668048
 H         1.723542         1.925188        -1.251167
 H         2.076440         0.665388        -2.472099
 H         5.259109        -1.693327        -1.166699
 H         4.749844        -1.587509         0.543175
 H         3.117334        -1.307351        -2.063417
