19
Iteration:  3513charge 0 multiplicity 1
 C        -0.077521        -0.086818         0.094611
 C         1.374184        -0.006760        -0.127583
 C         2.490837         0.641986         0.765795
 C         3.192074         0.400588        -0.703143
 C         1.891509         0.760743        -1.411300
 O         4.711042         0.294036        -0.821657
 C         4.650824        -1.112856        -0.491012
 C         3.126894        -1.125576        -0.972083
 O         1.906653        -1.335655        -0.102041
 H        -0.542334        -0.511745        -0.761667
 H        -0.613003        -0.450320         1.021401
 H        -0.427041         0.985540        -0.089670
 H         2.457465         1.627404         1.194407
 H         2.663939        -0.118752         1.512682
 H         1.458379         1.800391        -1.329221
 H         1.740991         0.314399        -2.409103
 H         5.310316        -1.681579        -1.054109
 H         4.827650        -1.181414         0.588378
 H         3.030699        -1.347771        -2.006058
