19
Iteration:  3567charge 0 multiplicity 1
 C        -0.113681        -0.004188         0.329536
 C         1.332952         0.048332        -0.211325
 C         2.450706         0.510469         0.594954
 C         3.173061         0.261300        -0.823696
 C         1.890076         0.821960        -1.401352
 O         4.734116         0.324870        -0.848079
 C         4.739663        -1.021029        -0.250374
 C         3.191393        -1.185442        -0.835327
 O         1.841156        -1.346849        -0.366819
 H        -0.737298         0.094141        -0.527574
 H        -0.318156        -1.005558         0.878988
 H        -0.405292         0.898697         0.996829
 H         2.209171         1.574065         0.746866
 H         2.801677         0.140860         1.569239
 H         1.651103         1.940339        -1.325571
 H         1.618247         0.359484        -2.367765
 H         5.406774        -1.667351        -0.693257
 H         4.921717        -1.064260         0.865773
 H         3.249387        -1.670512        -1.798992
