19
Iteration:  2111
 C        -0.105740        -0.032523         0.277777
 C         1.324832        -0.066679        -0.202260
 C         2.557440         0.613421         0.701556
 C         3.273507         0.387163        -0.632965
 C         2.030300         0.946382        -1.404576
 O         4.672241         0.282495        -0.693897
 C         4.597725        -1.190342        -0.461006
 C         3.081981        -1.067946        -0.906857
 O         1.817905        -1.410671        -0.450074
 H        -0.165750        -0.158405         1.465197
 H        -0.718126         0.806946         0.021309
 H        -0.533363        -1.001346        -0.092647
 H         2.571237         1.647762         0.989872
 H         2.731265         0.053504         1.615581
 H         1.744765         2.038589        -1.283509
 H         1.976465         0.636043        -2.518659
 H         5.217777        -1.836825        -1.142047
 H         4.701559        -1.547704         0.560590
 H         3.080286        -1.236567        -2.030592
