19
Iteration:  4692
 C        -0.163804         0.025723         0.152708
 C         1.362987         0.017845        -0.149145
 C         2.549041         0.496411         0.649247
 C         3.261391         0.354074        -0.662811
 C         1.926290         0.810898        -1.396466
 O         4.732376         0.321569        -0.839686
 C         4.699128        -1.044396        -0.397381
 C         3.159680        -1.105673        -0.827015
 O         1.745354        -1.446734        -0.276553
 H        -0.718637        -0.107253        -0.790099
 H        -0.340207        -0.822555         0.824378
 H        -0.551440         0.988743         0.557428
 H         2.366295         1.553829         0.916733
 H         2.836120         0.004206         1.562780
 H         1.576777         1.871182        -1.406509
 H         1.820646         0.307150        -2.384216
 H         5.445905        -1.619474        -0.980675
 H         4.813772        -0.954594         0.711488
 H         3.140839        -1.454799        -1.836250
