19
Iteration:  2661charge 0 multiplicity 1
 C        -0.130638         0.033687         0.291562
 C         1.322935         0.027006        -0.153488
 C         2.378966         0.617289         0.665478
 C         3.313785         0.400062        -0.735706
 C         1.935944         0.766520        -1.412233
 O         4.732339         0.303687        -0.791505
 C         4.635070        -1.105601        -0.367784
 C         3.187992        -1.171680        -0.907724
 O         1.889350        -1.476983        -0.377394
 H        -0.597807        -0.857773         0.728655
 H        -0.264873         0.851920         0.982217
 H        -0.768623         0.465152        -0.563457
 H         2.269718         1.666343         0.920669
 H         2.600846        -0.025432         1.551664
 H         1.640120         1.863306        -1.215653
 H         1.678609         0.503425        -2.474016
 H         5.431625        -1.795968        -0.819574
 H         4.683758        -0.966129         0.739248
 H         3.226854        -1.322203        -1.969519
