19
Iteration:  3643charge 0 multiplicity 1
 C        -0.207449        -0.096264         0.203348
 C         1.371779         0.027454        -0.160836
 C         2.534911         0.624526         0.608787
 C         3.265337         0.382518        -0.633436
 C         1.897174         0.834859        -1.460399
 O         4.710578         0.273601        -0.794128
 C         4.680809        -1.097093        -0.445806
 C         3.152599        -1.113620        -0.842053
 O         1.823315        -1.347973        -0.246640
 H        -0.493424        -0.977001        -0.298546
 H        -0.275502        -0.330775         1.312464
 H        -0.777261         0.871452         0.007526
 H         2.484071         1.683418         0.890921
 H         2.834601        -0.102313         1.396938
 H         1.858173         1.974769        -1.397215
 H         1.846776         0.342084        -2.421263
 H         5.250931        -1.716757        -1.070978
 H         4.996234        -1.378788         0.629145
 H         2.960280        -1.495259        -1.885894
