19
Iteration:   435charge 0 multiplicity 1
 C        -0.095362        -0.044533         0.157734
 C         1.316031         0.095194        -0.187760
 C         2.558782         0.520015         0.742861
 C         3.217380         0.351454        -0.670705
 C         1.983722         0.959289        -1.286144
 O         4.689350         0.234214        -0.697440
 C         4.646822        -1.211588        -0.572961
 C         3.123584        -1.058747        -0.950284
 O         1.814704        -1.368582        -0.321266
 H        -0.043876        -0.800209         0.992979
 H        -0.502699         0.892014         0.407657
 H        -0.734011        -0.534619        -0.558577
 H         2.431672         1.533341         0.944313
 H         2.774976        -0.121430         1.562798
 H         1.758044         1.884302        -0.825545
 H         1.747319         0.696463        -2.357016
 H         5.247977        -1.801587        -1.310694
 H         4.790250        -1.428198         0.466375
 H         3.023979        -1.077269        -2.070101
