19
Iteration:  1742charge 0 multiplicity 1
 C        -0.098531        -0.029780         0.111241
 C         1.334523         0.027530        -0.163179
 C         2.512070         0.428311         0.743796
 C         3.271502         0.369887        -0.627248
 C         1.971176         0.958156        -1.322815
 O         4.752425         0.309857        -0.724706
 C         4.560882        -1.166225        -0.560494
 C         3.035099        -1.092976        -0.978937
 O         1.873563        -1.380922        -0.254139
 H        -0.166297        -0.618433         1.128350
 H        -0.357603         0.972650         0.246039
 H        -0.914249        -0.460909        -0.526952
 H         2.225851         1.503950         0.985523
 H         2.828128        -0.127919         1.656746
 H         1.703340         1.950177        -1.195889
 H         1.846942         0.651960        -2.327247
 H         5.323033        -1.454194        -1.279974
 H         4.879733        -1.508251         0.402832
 H         3.146302        -1.286637        -2.108014
