19
Iteration:  3100
 C        -0.012763        -0.041047         0.352248
 C         1.344942        -0.001157        -0.221931
 C         2.558895         0.481278         0.644105
 C         3.273038         0.356440        -0.786969
 C         1.876423         0.847005        -1.457232
 O         4.756346         0.360157        -0.731209
 C         4.569073        -1.033298        -0.265609
 C         3.173237        -1.148809        -0.917879
 O         1.731778        -1.414143        -0.433835
 H        -0.169200        -0.682452         1.233864
 H        -0.381816         1.000847         0.759859
 H        -0.687393        -0.386127        -0.441148
 H         2.199425         1.582863         0.733089
 H         2.897173        -0.169033         1.458133
 H         1.718767         1.920030        -1.250647
 H         1.614562         0.581221        -2.565229
 H         5.388085        -1.651964        -0.558892
 H         4.536725        -1.015284         0.854557
 H         3.250205        -1.417813        -2.006877
