19
Iteration:  3092
 C         0.016437        -0.013063         0.305553
 C         1.386981        -0.031230        -0.228383
 C         2.547886         0.527020         0.634020
 C         3.201482         0.322482        -0.735001
 C         1.912274         0.866008        -1.377149
 O         4.641289         0.368205        -0.770181
 C         4.563316        -1.071413        -0.237173
 C         3.177197        -1.146044        -0.906880
 O         1.795766        -1.424341        -0.479119
 H         0.027073        -0.603314         1.208975
 H        -0.300547         1.077494         0.449165
 H        -0.759105        -0.515943        -0.329673
 H         2.473477         1.626145         0.884026
 H         2.954235         0.069451         1.534986
 H         1.635634         1.941416        -1.282945
 H         1.664516         0.640875        -2.464789
 H         5.257162        -1.749560        -0.715608
 H         4.654949        -1.071655         0.875532
 H         3.298938        -1.539213        -1.895501
