19
Iteration:  2771
 C        -0.085809        -0.047591         0.329400
 C         1.327960         0.071330        -0.202956
 C         2.502375         0.539048         0.643469
 C         3.257903         0.428604        -0.660759
 C         1.903402         0.779269        -1.447696
 O         4.705817         0.272765        -0.697368
 C         4.548728        -1.146407        -0.320732
 C         3.150479        -1.054207        -1.023484
 O         1.886149        -1.375396        -0.444954
 H        -0.052764         0.178258         1.458373
 H        -0.690892         0.759870         0.008745
 H        -0.408479        -1.115375         0.201516
 H         2.410131         1.527863         1.129794
 H         2.932460        -0.220920         1.418682
 H         1.849832         1.924168        -1.336724
 H         1.715664         0.335246        -2.449772
 H         5.398907        -1.668826        -0.896054
 H         4.510398        -1.310243         0.757816
 H         3.171721        -1.181988        -2.084917
