19
Iteration:  3851
 C        -0.106502         0.077116         0.055669
 C         1.355141        -0.033781        -0.148420
 C         2.518391         0.675907         0.743958
 C         3.253284         0.363896        -0.568121
 C         1.919972         0.748701        -1.347014
 O         4.675916         0.355678        -0.893574
 C         4.643212        -1.102636        -0.524879
 C         3.144004        -1.160212        -0.817183
 O         1.892228        -1.481541        -0.229717
 H        -0.685946        -0.760910        -0.298896
 H        -0.397303         0.008786         1.109191
 H        -0.705194         0.842054        -0.511155
 H         2.352608         1.728192         1.030392
 H         2.637610         0.086954         1.651449
 H         1.605349         1.800495        -1.285062
 H         1.778576         0.171911        -2.290464
 H         5.283042        -1.783756        -1.099996
 H         4.885350        -1.135032         0.608312
 H         3.001721        -1.349326        -1.923185
