19
Iteration:  4252charge 0 multiplicity 1
 C        -0.096390        -0.089603         0.429848
 C         1.360937        -0.005202        -0.205021
 C         2.512849         0.646414         0.633062
 C         3.210103         0.368255        -0.753472
 C         1.870757         0.772525        -1.533915
 O         4.773554         0.270188        -0.838664
 C         4.628536        -1.067288        -0.226316
 C         3.199188        -1.113721        -0.835861
 O         1.764760        -1.384449        -0.449922
 H        -0.797704        -0.236290        -0.331301
 H        -0.099854        -0.840771         1.181415
 H        -0.436284         0.877962         0.753288
 H         2.462594         1.731123         0.671686
 H         2.935844         0.454212         1.582194
 H         1.742706         1.837058        -1.558245
 H         1.752614         0.267341        -2.514476
 H         5.493872        -1.622460        -0.477493
 H         4.459464        -0.994004         0.883720
 H         3.210847        -1.362472        -1.938589
