19
Iteration:  3226
 C        -0.152906         0.031945         0.224786
 C         1.362556        -0.068903        -0.154051
 C         2.510623         0.658417         0.623837
 C         3.236203         0.362512        -0.674570
 C         1.954572         0.798569        -1.449911
 O         4.633762         0.346613        -0.887132
 C         4.616554        -1.086055        -0.285610
 C         3.219469        -1.119696        -0.881595
 O         1.852557        -1.500013        -0.290157
 H        -0.722868        -0.541930        -0.610850
 H        -0.161128        -0.587969         1.114089
 H        -0.516861         1.048806         0.479596
 H         2.348111         1.709968         0.855756
 H         2.859909         0.359021         1.622846
 H         1.645516         1.862590        -1.220429
 H         1.953712         0.481097        -2.494608
 H         5.336707        -1.707632        -0.920245
 H         4.764367        -1.139161         0.779849
 H         3.314004        -1.531227        -1.864035
