19
Iteration:  1874
 C        -0.199812         0.032565         0.165994
 C         1.336878         0.023173        -0.123152
 C         2.560431         0.535272         0.786929
 C         3.252956         0.366549        -0.633149
 C         1.922610         0.855906        -1.377080
 O         4.759275         0.308509        -0.735700
 C         4.600888        -1.201710        -0.520921
 C         3.084396        -1.054113        -0.969119
 O         1.881962        -1.390294        -0.370184
 H        -0.358866        -0.254182         1.275027
 H        -0.756253         0.962163        -0.068817
 H        -0.445022        -0.790936        -0.453205
 H         2.583214         1.535216         1.345812
 H         2.742269        -0.257759         1.597410
 H         1.761199         1.873639        -1.103083
 H         1.646408         0.501295        -2.359630
 H         5.311285        -1.843854        -1.151626
 H         4.858166        -1.442532         0.517071
 H         3.268871        -1.238083        -2.115986
