19
Iteration:  4671charge 0 multiplicity 1
 C        -0.124784         0.036479         0.076125
 C         1.423549        -0.079471        -0.113092
 C         2.456575         0.725890         0.723437
 C         3.196764         0.305379        -0.694194
 C         1.939076         0.812414        -1.346332
 O         4.592782         0.343926        -0.847185
 C         4.627535        -1.136759        -0.389082
 C         3.171612        -1.184097        -0.901277
 O         1.957799        -1.430246        -0.246195
 H        -0.556872         0.237240        -0.893241
 H        -0.545468        -0.869390         0.469419
 H        -0.410523         0.921310         0.664433
 H         2.400204         1.836335         0.920489
 H         2.804347         0.225630         1.627856
 H         1.812947         1.838037        -0.977895
 H         1.740872         0.691088        -2.423706
 H         5.158690        -1.707326        -1.200127
 H         4.872017        -1.415555         0.653836
 H         3.201341        -1.713269        -1.867374
