19
Iteration:  2720
 C        -0.176772        -0.042745         0.116738
 C         1.337285         0.096844        -0.159945
 C         2.524349         0.446826         0.755732
 C         3.264127         0.363291        -0.673953
 C         1.925152         0.898172        -1.384584
 O         4.685040         0.338318        -0.840158
 C         4.607051        -1.091747        -0.406526
 C         3.203492        -1.149064        -0.895025
 O         1.858777        -1.393498        -0.253387
 H        -0.398675        -0.496149         1.120145
 H        -0.617208         0.992553         0.076847
 H        -0.476719        -0.705293        -0.644755
 H         2.755962         1.485412         0.965340
 H         2.765156        -0.228990         1.542076
 H         1.523562         1.940071        -1.365206
 H         1.902544         0.532349        -2.429770
 H         5.302445        -1.793846        -0.956025
 H         4.807287        -1.200678         0.688650
 H         3.087831        -1.473013        -1.983483
