19
Iteration:  4587
 C        -0.033896         0.071163         0.352433
 C         1.364593        -0.103307        -0.174981
 C         2.498511         0.519252         0.627072
 C         3.255317         0.357518        -0.773889
 C         1.961954         0.830493        -1.441710
 O         4.678485         0.339965        -0.786268
 C         4.520701        -1.040048        -0.256289
 C         3.126541        -1.112443        -0.958172
 O         1.884384        -1.442899        -0.426257
 H        -0.780992        -0.411844        -0.253911
 H        -0.150268        -0.467841         1.297404
 H        -0.303077         1.125165         0.679215
 H         2.319422         1.635399         0.657765
 H         2.842827        -0.011882         1.497770
 H         1.487938         1.811047        -1.313766
 H         1.796796         0.493433        -2.449500
 H         5.369857        -1.716824        -0.425378
 H         4.360998        -1.059767         0.925175
 H         3.298582        -1.598991        -1.974813
