19
Iteration:  2690charge 0 multiplicity 1
 C        -0.101077         0.089303         0.129556
 C         1.364412        -0.073104        -0.142082
 C         2.531959         0.547454         0.702392
 C         3.234152         0.356738        -0.637021
 C         1.933467         0.772223        -1.364098
 O         4.598922         0.360351        -0.802425
 C         4.692483        -1.048563        -0.437776
 C         3.201477        -1.175160        -0.848284
 O         1.800070        -1.470609        -0.327540
 H        -0.591399        -0.651384         0.697152
 H        -0.181841         1.128777         0.587058
 H        -0.549996         0.244182        -0.844607
 H         2.524149         1.665816         0.911147
 H         2.884449        -0.051038         1.577887
 H         1.516198         1.712863        -1.216190
 H         1.859985         0.572349        -2.418424
 H         5.380347        -1.620336        -0.982658
 H         4.945915        -1.105585         0.619025
 H         3.111414        -1.341163        -1.937250
