19
Iteration:   658charge 0 multiplicity 1
 C         0.003673        -0.011502         0.254466
 C         1.412505         0.020332        -0.157755
 C         2.607238         0.449671         0.697134
 C         3.252269         0.342264        -0.631140
 C         1.905861         0.934020        -1.350701
 O         4.619585         0.318734        -0.667901
 C         4.550758        -1.161496        -0.483271
 C         3.090864        -1.088867        -0.988534
 O         1.806704        -1.374742        -0.440651
 H        -0.015235        -0.230726         1.339162
 H        -0.510676         0.951682        -0.058865
 H        -0.410627        -0.824600        -0.308813
 H         2.624217         1.498993         0.965668
 H         2.909497        -0.103573         1.569943
 H         1.615969         1.982783        -1.258420
 H         1.811119         0.574950        -2.423584
 H         5.285888        -1.692983        -1.015958
 H         4.557164        -1.301497         0.639939
 H         3.000247        -1.346746        -2.051217
