19
Iteration:    15
 C        -0.173597        -0.094925         0.315057
 C         1.306687         0.140312        -0.150514
 C         2.515877         0.575805         0.750621
 C         3.234568         0.301523        -0.714174
 C         1.875187         0.912946        -1.305713
 O         4.805783         0.289825        -0.694842
 C         4.605744        -1.173814        -0.452095
 C         3.169270        -1.175144        -0.997018
 O         1.851572        -1.309280        -0.508892
 H        -0.145357        -0.510636         1.400761
 H        -0.532620         0.858236         0.330442
 H        -0.701100        -0.854001        -0.165313
 H         2.600529         1.627917         0.779691
 H         2.838727         0.201522         1.691666
 H         1.825361         1.974472        -1.448018
 H         1.479796         0.413656        -2.275906
 H         5.201544        -1.763171        -1.206666
 H         4.834514        -1.427990         0.533452
 H         3.247273        -1.619122        -1.994096
