19
Iteration:  3028charge 0 multiplicity 1
 C        -0.137050        -0.027624         0.068504
 C         1.369293         0.011200        -0.081578
 C         2.569917         0.592917         0.731994
 C         3.194875         0.347047        -0.633521
 C         1.935165         0.908106        -1.392259
 O         4.609225         0.304498        -0.689587
 C         4.675307        -1.149807        -0.566321
 C         3.121112        -1.116479        -0.886922
 O         1.903554        -1.402818        -0.264585
 H        -0.479249        -0.031488         1.077344
 H        -0.768449         0.730946        -0.387368
 H        -0.338254        -1.081890        -0.230882
 H         2.484158         1.643932         0.846866
 H         3.017334        -0.076603         1.451385
 H         1.791687         2.044171        -1.431198
 H         1.582176         0.594332        -2.407196
 H         5.235894        -1.757804        -1.308451
 H         5.032845        -1.431899         0.461928
 H         3.063180        -1.418247        -1.929877
