19
Iteration:  3863
 C        -0.152606        -0.008182         0.106581
 C         1.385608        -0.063559        -0.077222
 C         2.560779         0.695307         0.736865
 C         3.212755         0.336570        -0.629656
 C         1.986872         0.714116        -1.340458
 O         4.618935         0.322152        -0.855822
 C         4.675495        -1.089768        -0.437356
 C         3.106456        -1.089767        -0.883795
 O         1.830166        -1.445475        -0.280434
 H        -0.515012        -0.934622        -0.327540
 H        -0.438007         0.257763         1.078381
 H        -0.331909         0.907260        -0.475347
 H         2.364110         1.749541         0.600757
 H         3.028850         0.464291         1.649910
 H         1.678599         1.740360        -1.320297
 H         1.855767         0.439486        -2.432836
 H         5.414084        -1.532651        -1.169826
 H         4.866703        -1.406785         0.642822
 H         3.151992        -1.230534        -2.014230
