19
Iteration:   377
 C        -0.052689         0.054634         0.344074
 C         1.376512        -0.002608        -0.183451
 C         2.483796         0.418722         0.777716
 C         3.218175         0.366948        -0.706863
 C         1.966368         0.968245        -1.361644
 O         4.663666         0.279645        -0.824213
 C         4.570934        -1.145654        -0.336674
 C         3.155775        -1.128998        -0.943396
 O         1.864383        -1.414046        -0.554018
 H        -0.347207        -0.800059         0.849441
 H        -0.148730         0.835147         1.130797
 H        -0.675300         0.451917        -0.475791
 H         2.317795         1.469246         1.147208
 H         2.564017        -0.252021         1.647933
 H         1.576215         1.972431        -1.265333
 H         1.873841         0.753555        -2.381359
 H         5.355311        -1.776037        -0.702863
 H         4.636647        -1.135315         0.766573
 H         3.342496        -1.324706        -2.011847
