19
Iteration:  2139
 C        -0.044537         0.002729         0.292959
 C         1.355321         0.005282        -0.209622
 C         2.529609         0.465127         0.710583
 C         3.280481         0.360341        -0.729822
 C         1.856665         0.949699        -1.356441
 O         4.780098         0.280561        -0.760751
 C         4.555345        -1.129130        -0.267529
 C         3.116692        -1.114728        -1.043139
 O         1.833692        -1.353401        -0.449722
 H        -0.053298        -0.417292         1.205210
 H        -0.649125         0.915526         0.314026
 H        -0.578559        -0.761186        -0.334204
 H         2.637260         1.551261         1.082838
 H         2.550889        -0.244444         1.588445
 H         1.569938         1.933917        -1.195512
 H         1.778677         0.700908        -2.385474
 H         5.326113        -1.756158        -0.670791
 H         4.329114        -1.342200         0.808762
 H         3.048832        -1.459037        -2.074326
