19
Iteration:   682
 C        -0.109595        -0.106784         0.382679
 C         1.342049        -0.048388        -0.156654
 C         2.499974         0.581129         0.625983
 C         3.296994         0.416696        -0.685901
 C         1.986153         1.004355        -1.409592
 O         4.798250         0.253820        -0.672716
 C         4.492513        -1.214391        -0.446914
 C         3.089108        -1.018465        -1.007218
 O         1.840584        -1.393501        -0.439409
 H        -0.046420        -0.284408         1.397699
 H        -0.594653         0.791952         0.131684
 H        -0.531423        -1.007875        -0.102688
 H         2.336239         1.528611         1.191067
 H         2.765066        -0.114230         1.445788
 H         1.742797         2.000971        -1.137761
 H         1.808072         0.828777        -2.517116
 H         5.120295        -1.775983        -1.075780
 H         4.583787        -1.422743         0.617205
 H         3.002709        -1.254490        -2.044918
