19
Iteration:  3234
 C        -0.115511         0.016681         0.277919
 C         1.381204        -0.036006        -0.237150
 C         2.497401         0.650582         0.666092
 C         3.204137         0.386259        -0.726194
 C         1.899805         0.816749        -1.494424
 O         4.688980         0.330542        -0.850786
 C         4.594649        -1.109751        -0.293830
 C         3.180413        -1.131472        -0.809113
 O         1.914315        -1.486000        -0.309268
 H        -0.758603        -0.306894        -0.568293
 H        -0.144401        -0.715361         1.044852
 H        -0.585473         0.971795         0.665614
 H         2.356152         1.698499         0.800327
 H         2.783945         0.092320         1.589174
 H         1.579358         1.880585        -1.537086
 H         1.656921         0.423960        -2.449038
 H         5.377321        -1.724150        -0.759268
 H         4.673398        -1.113737         0.777394
 H         3.276927        -1.414435        -1.861908
