19
Iteration:  3783charge 0 multiplicity 1
 C        -0.023274        -0.075964         0.301201
 C         1.401495         0.012654        -0.146540
 C         2.531511         0.676330         0.632037
 C         3.235658         0.416083        -0.755277
 C         1.805659         0.742233        -1.507124
 O         4.713243         0.234160        -0.803866
 C         4.548738        -1.105399        -0.263980
 C         3.175043        -1.127041        -0.907817
 O         1.856781        -1.316539        -0.392754
 H        -0.800748        -0.184986        -0.447694
 H        -0.380310        -0.830411         1.067650
 H        -0.246882         0.847446         0.957984
 H         2.423206         1.774277         0.800529
 H         2.944066         0.089175         1.526880
 H         1.500304         1.823371        -1.430914
 H         1.630423         0.091652        -2.338532
 H         5.290670        -1.847261        -0.456473
 H         4.528416        -0.985202         0.872755
 H         3.464490        -1.500296        -1.902976
