19
Iteration:  3603charge 0 multiplicity 1
 C         0.023049         0.036276         0.381956
 C         1.348042        -0.127006        -0.183659
 C         2.570453         0.611657         0.605210
 C         3.186041         0.376757        -0.710893
 C         1.952970         0.765699        -1.469322
 O         4.656167         0.323291        -0.753802
 C         4.500271        -1.024126        -0.251438
 C         3.161393        -1.125678        -1.012015
 O         1.844343        -1.436067        -0.386437
 H        -0.735497        -0.164344        -0.467596
 H        -0.169965        -0.623077         1.189489
 H        -0.147484         1.110599         0.679139
 H         2.105513         1.579496         0.677926
 H         3.054795         0.135419         1.467775
 H         1.530195         1.801934        -1.564909
 H         1.916684         0.295193        -2.453393
 H         5.318596        -1.708982        -0.620631
 H         4.486029        -0.906288         0.799239
 H         3.295141        -1.458012        -2.040224
