19
Iteration:  1141
 C         0.020608         0.120658         0.293580
 C         1.416497        -0.072215        -0.255739
 C         2.537207         0.362211         0.709982
 C         3.210285         0.362395        -0.613590
 C         2.053362         0.886171        -1.349283
 O         4.659355         0.353999        -0.722026
 C         4.601969        -1.061606        -0.451161
 C         3.142025        -1.085273        -0.955446
 O         1.648923        -1.449657        -0.435772
 H        -0.240766        -0.640021         1.078521
 H        -0.282154         1.088765         0.676470
 H        -0.692332        -0.161669        -0.615549
 H         2.475899         1.395693         0.970072
 H         2.801931        -0.331019         1.437814
 H         1.676502         1.975937        -1.117304
 H         1.925366         0.733295        -2.472045
 H         5.500651        -1.566117        -0.879977
 H         4.561356        -1.250598         0.648704
 H         3.122239        -1.439298        -2.001685
