19
Iteration:  1005
 C        -0.087679         0.129416         0.320849
 C         1.330986        -0.002771        -0.096867
 C         2.566861         0.433377         0.725882
 C         3.217988         0.348934        -0.650767
 C         1.976839         0.823302        -1.325021
 O         4.698400         0.327117        -0.737513
 C         4.544384        -1.084081        -0.406042
 C         3.161414        -1.136592        -1.030394
 O         1.812767        -1.436300        -0.579689
 H        -0.231988        -0.904467         0.754469
 H        -0.169321         1.064142         1.007145
 H        -0.752397         0.365287        -0.512679
 H         2.472326         1.469208         1.195317
 H         2.940810        -0.225220         1.604337
 H         1.640898         1.894535        -1.157472
 H         1.776669         0.473355        -2.392864
 H         5.408871        -1.666384        -0.785650
 H         4.473434        -1.100032         0.717253
 H         3.300024        -1.341753        -2.072757
