19
Iteration:  3462charge 0 multiplicity 1
 C        -0.035473         0.027610         0.257082
 C         1.361010        -0.012144        -0.177638
 C         2.478866         0.489684         0.690449
 C         3.246136         0.386025        -0.665951
 C         1.926951         0.759706        -1.501086
 O         4.703568         0.369680        -0.807994
 C         4.621156        -1.062965        -0.387137
 C         3.213308        -1.141514        -0.886532
 O         1.745244        -1.402973        -0.338145
 H        -0.496754        -0.977040         0.244267
 H         0.087134         0.108463         1.278456
 H        -0.843723         0.741878         0.005209
 H         2.288130         1.529843         0.957126
 H         2.772845        -0.063358         1.623708
 H         1.696676         1.855580        -1.534613
 H         1.713944         0.278442        -2.397043
 H         5.634400        -1.482618        -0.781264
 H         4.573118        -0.936992         0.714581
 H         3.217900        -1.453434        -1.984729
