19
Iteration:   525charge 0 multiplicity 1
 C        -0.109336        -0.021338         0.356722
 C         1.367446         0.045377        -0.196531
 C         2.592661         0.516337         0.727211
 C         3.206165         0.324244        -0.626298
 C         2.091105         0.919894        -1.377870
 O         4.647957         0.295883        -0.733411
 C         4.573104        -1.150280        -0.401883
 C         3.119825        -1.065543        -1.055930
 O         1.815716        -1.394002        -0.497074
 H        -0.139824        -0.640879         1.332511
 H        -0.359668         1.061805         0.594084
 H        -0.834851        -0.592757        -0.109356
 H         2.336302         1.534612         0.954314
 H         2.865571        -0.190294         1.501263
 H         1.618490         1.980001        -1.192219
 H         1.878362         0.522639        -2.374697
 H         5.146196        -1.894105        -0.925597
 H         4.372818        -1.290175         0.679768
 H         3.178620        -1.318264        -2.142242
