19
Iteration:  1654charge 0 multiplicity 1
 C        -0.069950         0.020429         0.336406
 C         1.386246        -0.020703        -0.147148
 C         2.543032         0.444703         0.717716
 C         3.239592         0.361205        -0.659487
 C         1.976219         0.902134        -1.365126
 O         4.689086         0.330232        -0.775713
 C         4.542738        -1.118745        -0.339626
 C         3.151248        -1.111159        -0.967408
 O         1.780384        -1.385875        -0.583763
 H        -0.050400        -0.501326         1.381893
 H        -0.266382         1.064576         0.489053
 H        -0.777638        -0.502649        -0.425254
 H         2.428586         1.437759         1.220208
 H         2.813114        -0.273525         1.555755
 H         1.707185         1.857986        -1.094734
 H         1.903291         0.604412        -2.371794
 H         5.308824        -1.635232        -0.870077
 H         4.632426        -1.172883         0.752816
 H         3.127105        -1.298491        -2.058813
