19
Iteration:  4633
 C        -0.188298        -0.063603         0.175339
 C         1.294502        -0.025133        -0.127273
 C         2.564028         0.588580         0.726103
 C         3.225030         0.415915        -0.750489
 C         1.971248         0.781621        -1.497113
 O         4.766955         0.323664        -0.809961
 C         4.617364        -1.105872        -0.431371
 C         3.199336        -1.117690        -0.819889
 O         1.781956        -1.328883        -0.220527
 H        -0.743793         0.100878        -0.785866
 H        -0.529329        -1.081715         0.510629
 H        -0.532206         0.665922         0.944089
 H         2.428859         1.587104         1.108993
 H         2.806474        -0.185041         1.473878
 H         1.594845         1.836407        -1.433806
 H         1.887569         0.381082        -2.534029
 H         5.326820        -1.711559        -1.080006
 H         5.132318        -1.275944         0.588859
 H         3.217339        -1.488673        -1.860780
