19
Iteration:  3677charge 0 multiplicity 1
 C        -0.098113        -0.003436         0.046757
 C         1.424880        -0.004984        -0.134613
 C         2.528320         0.654792         0.706163
 C         3.215179         0.343444        -0.623324
 C         1.967510         0.848334        -1.287337
 O         4.604453         0.307760        -0.919679
 C         4.603304        -1.111410        -0.468713
 C         3.110084        -1.160708        -0.846446
 O         1.932802        -1.464200        -0.183346
 H        -0.556971        -0.871997        -0.504492
 H        -0.437460        -0.065584         1.089871
 H        -0.668114         0.826467        -0.496967
 H         2.441086         1.723121         0.866978
 H         2.717239         0.087150         1.647700
 H         1.749599         1.981317        -1.277343
 H         1.723607         0.631555        -2.337132
 H         5.412036        -1.546301        -1.010245
 H         4.611801        -1.235819         0.655376
 H         2.971345        -1.399885        -1.946707
