19
Iteration:  2513
 C        -0.073048        -0.037933         0.168174
 C         1.344411        -0.032372        -0.163877
 C         2.529762         0.565865         0.730171
 C         3.222335         0.426508        -0.628335
 C         2.002164         0.821136        -1.408322
 O         4.720570         0.265466        -0.821953
 C         4.546583        -1.134206        -0.409324
 C         3.135835        -1.052474        -0.933239
 O         1.824137        -1.367466        -0.315051
 H        -0.364394        -0.179144         1.264300
 H        -0.621121         0.834186        -0.075759
 H        -0.514156        -0.891253        -0.358545
 H         2.379772         1.621663         1.064623
 H         2.892741        -0.020499         1.649187
 H         1.637005         1.838652        -1.161557
 H         1.970084         0.633489        -2.455872
 H         5.164832        -1.919394        -0.948313
 H         4.736473        -1.095946         0.630442
 H         3.078457        -1.442588        -1.938336
