19
Iteration:  2071
 C        -0.137458         0.073058         0.108733
 C         1.364436         0.077565        -0.152946
 C         2.542294         0.474077         0.758839
 C         3.211401         0.368280        -0.590677
 C         1.910293         0.861387        -1.333091
 O         4.668574         0.294080        -0.765859
 C         4.649047        -1.214279        -0.506836
 C         3.119764        -1.091987        -0.909079
 O         1.909708        -1.420577        -0.337536
 H        -0.421382        -0.074996         1.170687
 H        -0.562257         1.082138        -0.161775
 H        -0.684753        -0.645808        -0.419362
 H         2.482262         1.536628         1.103839
 H         2.679455        -0.239790         1.629953
 H         1.513365         1.911332        -1.164100
 H         1.854071         0.654974        -2.375346
 H         5.269757        -1.552122        -1.385825
 H         5.164070        -1.476532         0.448626
 H         3.107308        -1.327439        -1.944714
