19
Iteration:  4597
 C        -0.049542         0.022658         0.343159
 C         1.410007        -0.014173        -0.165038
 C         2.467225         0.625708         0.678089
 C         3.192882         0.309836        -0.756059
 C         1.935067         0.823929        -1.444169
 O         4.663241         0.334080        -0.792050
 C         4.610739        -1.047239        -0.278293
 C         3.239543        -1.223062        -0.967146
 O         1.803671        -1.468840        -0.435268
 H        -0.773663        -0.135442        -0.420979
 H        -0.052683        -0.667936         1.148049
 H        -0.200771         1.078171         0.677630
 H         2.348222         1.752749         0.838021
 H         2.708633         0.265988         1.669837
 H         1.681445         1.836973        -1.161883
 H         1.804834         0.621583        -2.471978
 H         5.436609        -1.653757        -0.565361
 H         4.310520        -0.993061         0.791682
 H         3.165108        -1.504636        -2.060174
