19
Iteration:  4797
 C        -0.152628        -0.032166         0.172358
 C         1.358151        -0.040754        -0.209716
 C         2.537402         0.599268         0.642286
 C         3.267283         0.294739        -0.616178
 C         1.995342         0.907337        -1.374212
 O         4.700300         0.396226        -0.842587
 C         4.600041        -1.138387        -0.404542
 C         3.153176        -1.159057        -0.825031
 O         1.780522        -1.425591        -0.275547
 H        -0.591059        -0.942653        -0.344909
 H        -0.290527        -0.166494         1.266436
 H        -0.686340         0.828311        -0.087552
 H         2.386393         1.635060         0.551648
 H         2.768786         0.125323         1.607601
 H         1.822373         1.967858        -1.282289
 H         1.910402         0.628945        -2.437511
 H         5.342354        -1.647329        -1.024460
 H         4.884605        -1.275493         0.672319
 H         3.222346        -1.431341        -1.904751
