19
Iteration:  2224charge 0 multiplicity 1
 C        -0.088439        -0.011266         0.068661
 C         1.384667         0.001203        -0.057728
 C         2.542441         0.663941         0.720198
 C         3.170541         0.340072        -0.649047
 C         1.992655         0.956260        -1.364112
 O         4.624540         0.268168        -0.726283
 C         4.627757        -1.177429        -0.493033
 C         3.137394        -1.141041        -0.896388
 O         1.859891        -1.451222        -0.344741
 H        -0.457997        -0.964782         0.435046
 H        -0.172813         0.694628         1.034369
 H        -0.738918         0.364940        -0.767281
 H         2.247471         1.666782         0.947677
 H         2.961790         0.139098         1.560131
 H         1.902378         2.092242        -1.201140
 H         1.759096         0.570634        -2.351161
 H         5.237632        -1.661905        -1.215570
 H         4.850104        -1.730357         0.461982
 H         3.025018        -1.401793        -1.963113
