19
Iteration:    44
 C         0.005312        -0.103567         0.378977
 C         1.377089        -0.030979        -0.269599
 C         2.564243         0.548988         0.649004
 C         3.239034         0.458916        -0.647822
 C         1.948678         0.956044        -1.400700
 O         4.703347         0.242628        -0.650165
 C         4.535249        -1.183165        -0.445298
 C         3.069554        -1.044825        -0.979226
 O         1.783523        -1.380577        -0.447411
 H         0.063793        -0.079019         1.502027
 H        -0.534268         0.772078         0.018676
 H        -0.478121        -1.096239         0.175075
 H         2.334413         1.593118         0.932681
 H         3.046115         0.029326         1.484620
 H         1.645606         1.975249        -1.316595
 H         1.797628         0.661415        -2.417326
 H         5.229276        -1.748486        -1.074153
 H         4.691627        -1.441548         0.625789
 H         3.110922        -1.251000        -2.053404
