19
Iteration:  4354charge 0 multiplicity 1
 C        -0.134913        -0.026211         0.162370
 C         1.390274        -0.047273        -0.123105
 C         2.463492         0.564685         0.672233
 C         3.233211         0.339892        -0.670647
 C         2.022840         0.860497        -1.462269
 O         4.687473         0.352585        -0.905848
 C         4.594147        -1.062148        -0.431527
 C         3.111069        -1.143897        -0.828366
 O         1.861505        -1.417310        -0.182561
 H        -0.529927        -0.863668        -0.423045
 H        -0.358213        -0.171714         1.214105
 H        -0.569274         0.944101         0.046444
 H         2.254459         1.632275         0.795756
 H         2.647053        -0.012621         1.615097
 H         2.053106         1.916040        -1.205933
 H         1.963624         0.620432        -2.489172
 H         5.283709        -1.828818        -0.942648
 H         4.863357        -1.177095         0.633822
 H         3.016751        -1.425648        -1.909982
