19
Iteration:   137
 C        -0.170404        -0.024645         0.169599
 C         1.319765         0.019022        -0.190516
 C         2.573346         0.593805         0.779426
 C         3.304900         0.369665        -0.623455
 C         2.007923         0.895289        -1.309716
 O         4.692724         0.309221        -0.812397
 C         4.505039        -1.187922        -0.542300
 C         3.075189        -1.050403        -0.980552
 O         1.938737        -1.499494        -0.269727
 H        -0.508545        -0.935543         0.751782
 H        -0.316976         0.958047         0.828170
 H        -0.829755         0.190036        -0.777596
 H         2.398667         1.704440         0.986227
 H         2.923896        -0.158683         1.536851
 H         1.672304         1.957239        -0.836554
 H         1.959929         0.820689        -2.432948
 H         5.209660        -1.766545        -1.144285
 H         4.534516        -1.377536         0.584026
 H         3.038600        -1.306349        -2.067910
