19
Iteration:   214charge 0 multiplicity 1
 C         0.015518         0.057873         0.306016
 C         1.381440        -0.111395        -0.248207
 C         2.523606         0.481171         0.750454
 C         3.247765         0.342090        -0.667973
 C         1.943767         0.996777        -1.331037
 O         4.699018         0.257068        -0.800909
 C         4.534582        -1.046958        -0.377011
 C         3.105749        -1.145431        -0.972805
 O         1.799759        -1.435466        -0.499086
 H        -0.081111        -0.737627         1.042604
 H        -0.040795         0.996980         1.039440
 H        -0.876411         0.162046        -0.461193
 H         2.318396         1.437356         1.355897
 H         2.793050        -0.442109         1.383706
 H         1.643674         2.152309        -1.030326
 H         1.628772         0.942870        -2.426250
 H         5.430995        -1.590189        -0.642001
 H         4.537642        -1.021122         0.771548
 H         3.205661        -1.518430        -2.017567
