19
Iteration:  3319
 C        -0.163758         0.030132         0.192544
 C         1.320245        -0.022918        -0.193501
 C         2.531796         0.530198         0.627372
 C         3.237317         0.395274        -0.746814
 C         1.911264         0.707637        -1.469642
 O         4.752642         0.344802        -0.906422
 C         4.618173        -1.004213        -0.278411
 C         3.165344        -1.077402        -0.828561
 O         1.844462        -1.424130        -0.193880
 H        -0.801985         0.378023        -0.551460
 H        -0.562778        -0.952494         0.402317
 H        -0.341895         0.560054         1.146267
 H         2.580895         1.444295         1.174359
 H         2.841226        -0.173736         1.414024
 H         1.803318         1.781449        -1.573378
 H         1.798672         0.103795        -2.342108
 H         5.232481        -1.632050        -0.884276
 H         4.952936        -1.021528         0.783164
 H         3.069704        -1.494546        -1.858616
