19
Iteration:  3440charge 0 multiplicity 1
 C        -0.074545         0.040726         0.398097
 C         1.307820        -0.064629        -0.150717
 C         2.519235         0.539392         0.580143
 C         3.187638         0.368649        -0.774187
 C         1.912961         0.791850        -1.473128
 O         4.715817         0.340559        -0.823260
 C         4.566171        -1.035641        -0.180163
 C         3.139651        -1.109830        -0.911390
 O         1.925537        -1.435541        -0.457097
 H        -0.717141        -0.807974         0.139752
 H        -0.146879         0.178028         1.424136
 H        -0.607201         0.879744        -0.117413
 H         2.511563         1.503268         1.072919
 H         2.903081        -0.222825         1.297776
 H         1.586721         1.851318        -1.328113
 H         1.878845         0.494246        -2.473509
 H         5.354165        -1.679207        -0.688279
 H         4.511124        -1.004042         0.934034
 H         3.328132        -1.614904        -1.905328
