19
Iteration:  1274
 C        -0.149700         0.108750         0.188511
 C         1.455022        -0.051745        -0.127271
 C         2.597602         0.435115         0.760919
 C         3.236773         0.335430        -0.622164
 C         1.944648         0.964923        -1.355111
 O         4.641079         0.362136        -0.767072
 C         4.567360        -1.172203        -0.477263
 C         3.149411        -1.109868        -0.929328
 O         1.814295        -1.465980        -0.436503
 H        -0.431639         0.166146         1.274539
 H        -0.350806         1.060164        -0.243008
 H        -0.730927        -0.642184        -0.254411
 H         2.488551         1.361339         1.226327
 H         2.777379        -0.293598         1.524507
 H         1.668689         1.971413        -0.974737
 H         1.919671         0.492220        -2.354546
 H         5.370599        -1.655186        -1.037027
 H         4.832472        -1.219911         0.590473
 H         3.124659        -1.282392        -2.014820
