19
Iteration:  4718
 C        -0.076121        -0.023654         0.299200
 C         1.384908         0.005434        -0.157656
 C         2.491721         0.508886         0.674662
 C         3.234102         0.310088        -0.741099
 C         1.951914         0.853631        -1.493870
 O         4.639549         0.360623        -0.810076
 C         4.585338        -1.122593        -0.278661
 C         3.136623        -1.105538        -0.863562
 O         1.854903        -1.380551        -0.428555
 H        -0.862400        -0.549966        -0.222483
 H        -0.056659        -0.271821         1.369436
 H        -0.302059         1.034486        -0.006401
 H         2.444600         1.598509         1.089513
 H         2.808499        -0.097127         1.585492
 H         1.790950         1.924262        -1.425066
 H         1.791039         0.288148        -2.413480
 H         5.480179        -1.754862        -0.608270
 H         4.739580        -1.024845         0.855149
 H         3.318417        -1.518096        -1.938741
