19
Iteration:  3359charge 0 multiplicity 1
 C        -0.097315         0.006927         0.104490
 C         1.367815        -0.074899        -0.194997
 C         2.495131         0.731810         0.682234
 C         3.234790         0.307261        -0.725566
 C         1.976599         0.757707        -1.333700
 O         4.679672         0.343855        -0.867746
 C         4.630549        -1.048694        -0.447939
 C         3.143005        -1.147348        -0.827818
 O         1.863320        -1.438406        -0.141640
 H        -0.610399         0.243163        -0.910974
 H        -0.444222        -1.121468         0.398337
 H        -0.428723         0.721452         0.872115
 H         2.106016         1.788395         0.497808
 H         2.723709         0.248156         1.633742
 H         1.609431         1.760560        -1.052771
 H         1.640819         0.452879        -2.440332
 H         5.279246        -1.761760        -0.971053
 H         4.827545        -1.329021         0.642575
 H         3.176716        -1.458307        -1.850763
