19
Iteration:   119charge 0 multiplicity 1
 C        -0.101851         0.050286         0.118344
 C         1.360179         0.005598        -0.077727
 C         2.571660         0.451347         0.784311
 C         3.222354         0.294913        -0.610644
 C         1.991968         0.922553        -1.276805
 O         4.626968         0.340437        -0.871641
 C         4.690950        -1.087803        -0.525542
 C         3.117348        -1.171070        -0.920758
 O         1.783663        -1.390147        -0.330418
 H        -0.258403        -0.636578         0.898453
 H        -0.574029         1.000794         0.460525
 H        -0.605996        -0.157071        -0.852039
 H         2.516585         1.528400         1.068870
 H         2.746739        -0.271914         1.585093
 H         1.879999         1.985332        -1.232927
 H         1.784153         0.479307        -2.237483
 H         5.395564        -1.626125        -1.156018
 H         4.839585        -1.316909         0.550294
 H         3.041091        -1.355328        -2.001746
