19
Iteration:   454charge 0 multiplicity 1
 C        -0.070776         0.000701         0.208127
 C         1.362098        -0.040857        -0.134791
 C         2.478516         0.488020         0.793916
 C         3.298308         0.418940        -0.553084
 C         2.069203         0.982740        -1.303219
 O         4.719690         0.317189        -0.820159
 C         4.509348        -1.190663        -0.518301
 C         3.085914        -1.138422        -0.981067
 O         1.785606        -1.411975        -0.384934
 H        -0.436192        -0.385359         1.080738
 H        -0.383746         1.013118         0.037395
 H        -0.480198        -0.733399        -0.531419
 H         2.369290         1.535316         1.138862
 H         2.882393        -0.165702         1.588107
 H         1.763571         1.982821        -1.227256
 H         1.883106         0.674393        -2.327728
 H         5.129411        -1.662047        -1.278198
 H         4.921688        -1.307819         0.472917
 H         3.043211        -1.256927        -2.065339
