19
Iteration:  1160
 C        -0.092631         0.131112         0.322264
 C         1.288428        -0.022751        -0.177071
 C         2.486304         0.433282         0.689090
 C         3.242578         0.304157        -0.727282
 C         1.933770         0.938876        -1.309816
 O         4.729457         0.339131        -0.769388
 C         4.670215        -1.125728        -0.314696
 C         3.161296        -1.161688        -0.972941
 O         1.796813        -1.428642        -0.548756
 H        -0.383574        -0.603895         1.020601
 H        -0.028924         0.907172         1.009622
 H        -0.903646         0.105408        -0.436039
 H         2.361755         1.464163         1.116135
 H         2.748390        -0.308865         1.494754
 H         1.766607         2.033410        -1.062529
 H         1.647121         0.713174        -2.355059
 H         5.428609        -1.720807        -0.870307
 H         4.863232        -1.248524         0.770001
 H         3.368300        -1.454123        -1.980377
