19
Iteration:  3161
 C        -0.156668        -0.020112         0.138377
 C         1.395063        -0.072719        -0.134879
 C         2.507857         0.641853         0.728205
 C         3.201308         0.380428        -0.684380
 C         1.966872         0.830033        -1.408398
 O         4.733948         0.325218        -0.803668
 C         4.610364        -1.062418        -0.437686
 C         3.177470        -1.156266        -0.939839
 O         1.828933        -1.457765        -0.215740
 H        -0.594457        -1.071009         0.081491
 H        -0.238767         0.493118         1.033775
 H        -0.731616         0.569106        -0.593853
 H         2.229385         1.672724         0.771824
 H         2.863223         0.395365         1.743286
 H         1.538769         1.871554        -1.320211
 H         1.876779         0.535305        -2.441437
 H         5.406026        -1.668143        -1.020966
 H         4.688876        -1.220116         0.629421
 H         3.101839        -1.526479        -1.961516
