19
Iteration:    97
 C        -0.101289         0.080673         0.203517
 C         1.347214        -0.050044        -0.083446
 C         2.570859         0.436089         0.812642
 C         3.247297         0.357722        -0.733382
 C         1.900033         0.864273        -1.270685
 O         4.710593         0.352126        -0.867218
 C         4.722423        -1.094928        -0.423009
 C         3.119437        -1.158209        -0.832167
 O         1.722631        -1.374985        -0.503605
 H        -0.408154        -0.144158         1.177200
 H        -0.556302         1.079174        -0.045036
 H        -0.575383        -0.504987        -0.621417
 H         2.718489         1.456451         1.214075
 H         2.856659        -0.409695         1.477568
 H         1.665446         1.825419        -0.845648
 H         1.585140         0.722835        -2.284609
 H         5.179238        -1.730785        -1.165038
 H         5.318761        -1.147814         0.529196
 H         3.178475        -1.582270        -1.846597
