19
Iteration:   314charge 0 multiplicity 1
 C        -0.127994        -0.010195         0.210683
 C         1.395515         0.017276        -0.131976
 C         2.521250         0.512873         0.720217
 C         3.297897         0.381112        -0.595085
 C         1.988377         0.871569        -1.257988
 O         4.750776         0.320182        -0.731211
 C         4.532779        -1.224132        -0.565883
 C         3.083556        -1.053282        -0.993154
 O         1.834730        -1.388942        -0.402755
 H        -0.523382        -0.405871         1.164679
 H        -0.490091         1.001528         0.131899
 H        -0.594857        -0.689055        -0.549367
 H         2.378424         1.504585         1.086857
 H         2.807329        -0.033507         1.577122
 H         1.649714         1.908692        -1.085194
 H         1.801422         0.629432        -2.397835
 H         5.307130        -1.811901        -1.098401
 H         4.578671        -1.388352         0.520282
 H         2.996308        -1.133523        -2.104249
