19
Iteration:  3045
 C        -0.158392        -0.042240         0.109753
 C         1.321371         0.008983        -0.183334
 C         2.532734         0.487906         0.703349
 C         3.252432         0.404271        -0.696124
 C         1.910711         0.805372        -1.311436
 O         4.824415         0.352126        -0.785403
 C         4.645557        -1.140250        -0.491153
 C         3.131723        -1.085078        -0.858245
 O         1.806242        -1.367414        -0.236268
 H        -0.470513         0.053210         1.194930
 H        -0.620847         0.872958        -0.457597
 H        -0.743817        -0.906542        -0.214002
 H         2.521873         1.550674         1.259401
 H         2.687803        -0.356429         1.408149
 H         1.452173         1.800165        -1.270536
 H         1.679731         0.673282        -2.430846
 H         5.298411        -1.523567        -1.261025
 H         5.045768        -1.338190         0.515260
 H         3.001680        -1.421962        -1.921940
