19
Iteration:  1035charge 0 multiplicity 1
 C        -0.056816         0.079955         0.270179
 C         1.372062        -0.030669        -0.152864
 C         2.463065         0.427744         0.667168
 C         3.238298         0.361115        -0.696537
 C         1.914969         0.978820        -1.279716
 O         4.747677         0.288426        -0.741328
 C         4.641527        -1.137335        -0.396391
 C         3.121366        -1.114263        -0.920843
 O         1.777684        -1.418518        -0.537577
 H        -0.202232        -0.603972         1.124842
 H        -0.299239         1.155116         0.507067
 H        -0.742945        -0.275613        -0.433673
 H         2.328029         1.403874         1.181347
 H         2.849265        -0.205365         1.467236
 H         1.709273         1.866227        -0.866205
 H         1.756495         0.771677        -2.308439
 H         5.278969        -1.725470        -1.062683
 H         4.886501        -1.214712         0.653706
 H         3.264393        -1.452063        -1.958176
