19
Iteration:  1802
 C        -0.078200         0.024898         0.293485
 C         1.382075         0.039630        -0.123117
 C         2.546489         0.392462         0.722930
 C         3.232852         0.414965        -0.728212
 C         1.869640         0.827875        -1.401983
 O         4.754767         0.299621        -0.813378
 C         4.567833        -1.093094        -0.260205
 C         3.163760        -1.104522        -0.981930
 O         1.781823        -1.360492        -0.499307
 H        -0.241009        -0.865958         0.817047
 H        -0.186691         0.798783         1.157232
 H        -0.755804         0.151492        -0.567015
 H         2.592283         1.314610         1.247850
 H         2.821225        -0.402792         1.396544
 H         1.655958         1.946993        -1.192133
 H         1.737699         0.575894        -2.503578
 H         5.353329        -1.714747        -0.692136
 H         4.514167        -1.242847         0.870151
 H         3.278536        -1.187958        -2.049880
