19
Iteration:   117charge 0 multiplicity 1
 C        -0.087030         0.044973         0.120541
 C         1.363725         0.012663        -0.067176
 C         2.567521         0.435127         0.778822
 C         3.231338         0.286137        -0.619440
 C         1.980199         0.925064        -1.274420
 O         4.623331         0.350249        -0.875503
 C         4.702784        -1.096136        -0.524191
 C         3.125183        -1.168567        -0.904201
 O         1.768482        -1.377615        -0.338619
 H        -0.299175        -0.633968         0.937148
 H        -0.565938         1.074076         0.432382
 H        -0.594841        -0.189525        -0.892996
 H         2.397817         1.510208         1.052776
 H         2.782557        -0.313337         1.581759
 H         1.899733         2.070643        -1.252351
 H         1.754265         0.431490        -2.221888
 H         5.392390        -1.621184        -1.179117
 H         4.852971        -1.329030         0.583995
 H         3.073458        -1.407569        -1.990696
