19
Iteration:  3577charge 0 multiplicity 1
 C        -0.045365         0.019418         0.343495
 C         1.315283         0.064255        -0.195743
 C         2.511745         0.545272         0.600990
 C         3.239636         0.324930        -0.766349
 C         1.861169         0.768874        -1.481481
 O         4.700631         0.382614        -0.839317
 C         4.620712        -1.056310        -0.208632
 C         3.216866        -1.174713        -0.844278
 O         1.801302        -1.423695        -0.399658
 H        -0.760208         0.007978        -0.449896
 H        -0.194648        -0.982022         0.901224
 H        -0.211204         0.875243         1.061434
 H         2.466560         1.564981         1.034674
 H         2.701736        -0.293732         1.264298
 H         1.743891         1.893322        -1.498013
 H         1.588660         0.332855        -2.469150
 H         5.303455        -1.690713        -0.695568
 H         4.905885        -0.829777         0.842176
 H         3.351524        -1.693835        -1.807670
