19
Iteration:   933
 C        -0.126946        -0.014757         0.184409
 C         1.411718         0.041956        -0.161789
 C         2.539038         0.535853         0.842715
 C         3.237550         0.338171        -0.606395
 C         1.973482         0.830923        -1.253164
 O         4.702956         0.315288        -0.781859
 C         4.552403        -1.198365        -0.541068
 C         3.102414        -1.062128        -1.031039
 O         1.850715        -1.329352        -0.378924
 H        -0.242547        -0.757736         0.947802
 H        -0.599931         0.930350         0.369504
 H        -0.501219        -0.349206        -0.888270
 H         2.546221         1.517341         1.285213
 H         2.793792        -0.254954         1.564890
 H         1.720930         1.918129        -1.303126
 H         1.825905         0.583462        -2.290718
 H         5.281475        -1.917393        -0.970777
 H         4.580228        -1.485939         0.555994
 H         3.031635        -1.189399        -2.157363
