19
Iteration:  3287
 C        -0.010889        -0.000500         0.338995
 C         1.366098        -0.025169        -0.140420
 C         2.448430         0.757503         0.537245
 C         3.205560         0.328735        -0.761730
 C         1.930963         0.797969        -1.450248
 O         4.627946         0.275120        -0.790483
 C         4.579078        -1.008599        -0.194766
 C         3.170954        -1.152859        -0.913739
 O         1.871959        -1.519902        -0.387023
 H        -0.757564         0.306677        -0.332969
 H        -0.202315        -1.023685         0.574076
 H        -0.145434         0.529441         1.305536
 H         2.318561         1.779730         0.387456
 H         2.825718         0.294217         1.438474
 H         1.999744         1.896048        -1.513045
 H         1.711661         0.429856        -2.423205
 H         5.283199        -1.572699        -0.762661
 H         4.822994        -1.119721         0.878660
 H         3.427012        -1.549153        -1.955296
