19
Iteration:  3559
 C        -0.167358        -0.014379         0.255008
 C         1.314826        -0.058835        -0.151192
 C         2.465926         0.593603         0.635993
 C         3.236265         0.306251        -0.789475
 C         1.900856         0.843066        -1.409508
 O         4.714620         0.271758        -0.854677
 C         4.803933        -0.997034        -0.301450
 C         3.136696        -1.194541        -0.837278
 O         1.844154        -1.362319        -0.337380
 H        -0.958586         0.033603        -0.527291
 H        -0.338684        -0.900653         0.825597
 H        -0.392139         0.842588         0.955642
 H         2.446055         1.658516         0.534359
 H         2.754429         0.353994         1.675784
 H         1.711688         1.932906        -1.197585
 H         1.603452         0.596354        -2.407717
 H         5.556066        -1.613259        -0.815476
 H         4.692076        -1.148450         0.749104
 H         3.263430        -1.623869        -1.806654
