19
Iteration:  4376
 C        -0.190244        -0.034848         0.231598
 C         1.291468         0.030796        -0.199902
 C         2.600637         0.639743         0.653818
 C         3.285991         0.404440        -0.740180
 C         1.882169         0.806738        -1.476285
 O         4.699834         0.283469        -0.820618
 C         4.596288        -1.118311        -0.317598
 C         3.169923        -1.087386        -0.884434
 O         1.878781        -1.392808        -0.265132
 H        -0.723351        -0.609462        -0.539098
 H        -0.154233        -0.711669         1.086466
 H        -0.658269         0.833837         0.649947
 H         2.689904         1.625575         1.128613
 H         2.846262        -0.193284         1.374161
 H         1.463744         1.811231        -1.442090
 H         1.857970         0.331360        -2.421160
 H         5.436884        -1.724098        -0.792402
 H         4.750560        -1.298504         0.764490
 H         3.167704        -1.578008        -1.900987
