19
Iteration:  1897charge 0 multiplicity 1
 C        -0.063052         0.028529         0.069116
 C         1.389617        -0.116712        -0.047836
 C         2.543124         0.517820         0.668746
 C         3.236852         0.309916        -0.631369
 C         1.978278         1.011121        -1.211334
 O         4.672757         0.299390        -0.820956
 C         4.595166        -1.099119        -0.482979
 C         3.087900        -1.105952        -0.934479
 O         1.804511        -1.433045        -0.348971
 H        -0.311550         0.026491         1.171999
 H        -0.462450         1.032540        -0.327716
 H        -0.463291        -0.809692        -0.448628
 H         2.433381         1.602467         0.936097
 H         2.717115         0.004854         1.686130
 H         1.654364         1.994307        -0.852700
 H         1.935547         0.783106        -2.242697
 H         5.326382        -1.655740        -1.112610
 H         4.674169        -1.503292         0.540627
 H         3.213448        -1.463284        -2.046896
