19
Iteration:  1066charge 0 multiplicity 1
 C        -0.113346        -0.088983         0.185210
 C         1.420152         0.065232        -0.092112
 C         2.540577         0.493786         0.693805
 C         3.260620         0.343022        -0.582352
 C         2.051026         0.965191        -1.287343
 O         4.643934         0.292913        -0.746852
 C         4.538487        -1.232382        -0.483923
 C         3.038490        -1.045429        -0.990563
 O         1.854893        -1.341118        -0.423403
 H        -0.443064        -0.297179         1.202748
 H        -0.683966         0.791024         0.109914
 H        -0.496318        -0.897511        -0.441464
 H         2.547573         1.513580         1.000928
 H         2.865910        -0.248410         1.330483
 H         1.793509         2.006242        -1.155743
 H         2.151968         0.649576        -2.321484
 H         5.311143        -1.800609        -1.010328
 H         4.665839        -1.408618         0.571541
 H         3.042175        -1.114517        -2.130962
