19
Iteration:   836
 C        -0.078208        -0.036948         0.300588
 C         1.361383         0.007562        -0.167152
 C         2.528245         0.543004         0.664385
 C         3.196827         0.361600        -0.620997
 C         1.906121         0.997313        -1.293019
 O         4.757471         0.224599        -0.720011
 C         4.498032        -1.156642        -0.415168
 C         3.150821        -1.088819        -1.065959
 O         1.871073        -1.407820        -0.453575
 H        -0.057863        -0.537655         1.246233
 H        -0.591816         0.906284         0.398203
 H        -0.608724        -0.740286        -0.532785
 H         2.384016         1.678678         0.685753
 H         2.756771        -0.047164         1.614294
 H         1.928253         2.120546        -1.029296
 H         1.731866         0.900798        -2.357723
 H         5.398831        -1.688589        -0.874796
 H         4.625144        -1.420645         0.674700
 H         3.188174        -1.344194        -2.138918
