19
Iteration:  4721
 C        -0.055846        -0.010631         0.310612
 C         1.413469        -0.001130        -0.147564
 C         2.482663         0.513711         0.653917
 C         3.242856         0.318900        -0.732633
 C         1.934301         0.881697        -1.484645
 O         4.618616         0.343170        -0.796929
 C         4.589496        -1.110138        -0.278064
 C         3.145939        -1.112274        -0.885614
 O         1.856279        -1.399729        -0.434744
 H        -0.864003        -0.614131        -0.216389
 H        -0.055213        -0.218327         1.413286
 H        -0.329570         0.967351        -0.028963
 H         2.353795         1.553783         0.876818
 H         2.770092        -0.009902         1.579103
 H         1.808991         1.964049        -1.419563
 H         1.805745         0.316030        -2.414342
 H         5.415637        -1.775414        -0.515323
 H         4.691477        -1.095521         0.823590
 H         3.336661        -1.519790        -1.887685
