19
Iteration:  4679
 C        -0.110506         0.013699         0.085146
 C         1.344567        -0.080600        -0.085194
 C         2.476784         0.664927         0.725559
 C         3.206301         0.328580        -0.720143
 C         1.949864         0.850550        -1.375108
 O         4.652496         0.356789        -0.847868
 C         4.699620        -1.114109        -0.395162
 C         3.127703        -1.190726        -0.858509
 O         1.875819        -1.422955        -0.268475
 H        -0.641557         0.141247        -0.913784
 H        -0.652630        -0.826238         0.625690
 H        -0.249427         0.928827         0.656724
 H         2.414643         1.702069         0.827265
 H         2.876382         0.141121         1.588680
 H         1.807971         1.953356        -1.199284
 H         1.605462         0.479886        -2.382523
 H         5.423653        -1.780486        -0.906723
 H         5.046072        -1.414748         0.663557
 H         3.152724        -1.511308        -1.871695
