19
Iteration:  3710charge 0 multiplicity 1
 C        -0.142357         0.065975         0.212295
 C         1.319482        -0.013938        -0.133228
 C         2.559582         0.582541         0.704165
 C         3.195567         0.365244        -0.744849
 C         1.878749         0.783176        -1.428279
 O         4.789770         0.369945        -0.894570
 C         4.632662        -1.077983        -0.380514
 C         3.174256        -1.166654        -0.767451
 O         1.837426        -1.447315        -0.319654
 H        -0.704377        -0.519316        -0.569205
 H        -0.478525        -0.396932         1.123319
 H        -0.551115         1.130213         0.181393
 H         2.458430         1.576531         1.120948
 H         2.707989        -0.134490         1.530267
 H         1.606874         1.893292        -1.426815
 H         1.685365         0.143518        -2.301668
 H         5.418536        -1.543971        -0.928209
 H         4.723483        -1.377807         0.715574
 H         3.257322        -1.566428        -1.823451
