19
Iteration:   645charge 0 multiplicity 1
 C        -0.129546         0.056971         0.263801
 C         1.342897         0.005162        -0.075952
 C         2.519417         0.511542         0.721083
 C         3.235497         0.301363        -0.675186
 C         1.947717         0.861789        -1.271676
 O         4.725902         0.297826        -0.764993
 C         4.675706        -1.113715        -0.453555
 C         3.130789        -1.139650        -1.044444
 O         1.812868        -1.379444        -0.461516
 H        -0.541854        -0.268764         1.315958
 H        -0.538279         1.157015         0.117361
 H        -0.678388        -0.586726        -0.409344
 H         2.448629         1.532809         1.055617
 H         2.688838        -0.247247         1.477533
 H         1.802995         1.962661        -1.028852
 H         1.596576         0.583062        -2.282180
 H         5.512925        -1.640084        -0.976514
 H         4.774454        -1.340833         0.696431
 H         3.216066        -1.225650        -2.171865
