19
Iteration:  3766charge 0 multiplicity 1
 C        -0.119286        -0.003086         0.446625
 C         1.287678        -0.047281        -0.261939
 C         2.543565         0.632256         0.513484
 C         3.222120         0.395775        -0.813158
 C         1.855901         0.813822        -1.505192
 O         4.840232         0.260531        -0.790646
 C         4.544101        -1.097573        -0.156513
 C         3.128338        -1.041516        -0.917945
 O         1.887877        -1.426527        -0.347701
 H        -0.861091        -0.199816        -0.376144
 H         0.027880        -0.915813         0.969682
 H        -0.170340         0.745158         1.221082
 H         2.318917         1.660743         0.734518
 H         2.751170         0.026148         1.364553
 H         1.592569         1.879684        -1.455482
 H         1.695534         0.374858        -2.540257
 H         5.332707        -1.759023        -0.588218
 H         4.533539        -1.154854         0.948662
 H         3.154520        -1.404525        -1.992479
