19
Iteration:  3623
 C        -0.086403        -0.010883         0.314101
 C         1.342871         0.000569        -0.217030
 C         2.449413         0.703166         0.665342
 C         3.228458         0.334530        -0.809493
 C         1.863437         0.826618        -1.427943
 O         4.753613         0.322496        -0.763225
 C         4.631541        -1.192556        -0.332840
 C         3.157321        -1.100821        -0.861371
 O         1.920294        -1.473314        -0.377250
 H        -0.804534        -0.579287        -0.323129
 H        -0.110459        -0.413068         1.337029
 H        -0.383715         1.110993         0.340541
 H         2.326517         1.755652         0.573729
 H         2.655777         0.217937         1.630739
 H         1.464490         1.864068        -1.140931
 H         1.479225         0.548987        -2.406706
 H         5.433040        -1.662432        -0.841899
 H         4.633184        -1.368692         0.737661
 H         3.062010        -1.368932        -1.890037
