19
Iteration:  3106
 C        -0.100812        -0.040253         0.397696
 C         1.346582        -0.014759        -0.178865
 C         2.522581         0.490888         0.568961
 C         3.284619         0.390462        -0.788841
 C         1.874237         0.839833        -1.513478
 O         4.837806         0.336732        -0.712562
 C         4.607359        -1.017139        -0.265040
 C         3.131062        -1.126277        -0.955979
 O         1.735181        -1.401935        -0.413149
 H        -0.117398        -0.838550         1.181668
 H        -0.389622         0.836284         0.832665
 H        -0.726663        -0.215921        -0.494072
 H         2.385954         1.448411         1.020685
 H         2.691234        -0.192063         1.421595
 H         1.749887         1.884214        -1.241411
 H         1.654226         0.418758        -2.429521
 H         5.553988        -1.608252        -0.531450
 H         4.427447        -1.053369         0.796279
 H         3.187195        -1.482051        -1.983638
