19
Iteration:  3951charge 0 multiplicity 1
 C        -0.045815         0.020139         0.308637
 C         1.331271         0.011282        -0.205561
 C         2.557929         0.625275         0.599860
 C         3.218307         0.346098        -0.757031
 C         1.844264         0.753744        -1.424664
 O         4.687923         0.330422        -0.758509
 C         4.616871        -1.085066        -0.248979
 C         3.201617        -1.142616        -0.879913
 O         1.850353        -1.443301        -0.426517
 H        -0.810062         0.098601        -0.495266
 H        -0.354612        -0.792891         0.887325
 H        -0.277004         0.811252         0.981153
 H         2.264790         1.658935         0.770187
 H         2.920191         0.217983         1.504401
 H         1.499356         1.787852        -1.341820
 H         1.594905         0.225022        -2.425765
 H         5.551757        -1.446493        -0.764580
 H         4.660978        -1.213428         0.840474
 H         3.216057        -1.465299        -1.965784
