19
Iteration:  2611charge 0 multiplicity 1
 C        -0.074565        -0.060882         0.284969
 C         1.323956        -0.012666        -0.175222
 C         2.514623         0.659398         0.635166
 C         3.220096         0.309904        -0.747477
 C         1.895094         0.896406        -1.378578
 O         4.745044         0.286302        -0.787407
 C         4.617833        -1.129418        -0.253851
 C         3.162105        -1.178342        -0.959806
 O         1.844719        -1.350664        -0.395094
 H        -0.135113        -0.922377         1.068529
 H        -0.614520         0.756941         0.750821
 H        -0.714272        -0.451604        -0.498900
 H         2.451228         1.753554         0.521125
 H         2.831758         0.354823         1.642870
 H         1.728289         1.974625        -1.230509
 H         1.832917         0.589158        -2.401043
 H         5.225861        -1.929724        -0.739196
 H         4.465242        -1.196837         0.802568
 H         3.155833        -1.287420        -2.119165
