19
Iteration:  1068
 C        -0.105570        -0.096818         0.171212
 C         1.419582         0.051761        -0.079372
 C         2.542475         0.502364         0.697437
 C         3.253068         0.356062        -0.596459
 C         2.052709         0.967775        -1.278578
 O         4.648338         0.283560        -0.746081
 C         4.533474        -1.232220        -0.490731
 C         3.038157        -1.044061        -0.962184
 O         1.857856        -1.338627        -0.431682
 H        -0.413176        -0.281516         1.212898
 H        -0.754250         0.805016         0.061249
 H        -0.416996        -0.852331        -0.429807
 H         2.510449         1.578308         0.969642
 H         2.911008        -0.296942         1.335010
 H         1.773960         1.936431        -1.208563
 H         2.100659         0.720201        -2.324650
 H         5.280041        -1.799528        -1.043175
 H         4.651542        -1.475828         0.549716
 H         3.019735        -1.084042        -2.069199
