19
Iteration:  2889charge 0 multiplicity 1
 C        -0.142574        -0.001159         0.152918
 C         1.385422         0.043549        -0.062064
 C         2.491366         0.668722         0.719310
 C         3.226959         0.350183        -0.648541
 C         1.945709         0.812712        -1.409641
 O         4.700613         0.300766        -0.745642
 C         4.630086        -1.140235        -0.488272
 C         3.162606        -1.128780        -0.901941
 O         1.836923        -1.420955        -0.338751
 H        -0.310717        -1.082441         0.439014
 H        -0.458787         0.466310         1.023230
 H        -0.637436        -0.058878        -0.840852
 H         2.352472         1.761682         0.807059
 H         2.941614         0.228900         1.691504
 H         1.758734         1.904683        -1.353546
 H         1.756266         0.403103        -2.371912
 H         5.304893        -1.651803        -1.192956
 H         4.758142        -1.386738         0.542064
 H         3.109274        -1.494473        -1.986277
