19
Iteration:  2943
 C        -0.022437         0.015751         0.311524
 C         1.397172        -0.076061        -0.151856
 C         2.561290         0.563050         0.611914
 C         3.270385         0.282944        -0.729295
 C         1.951283         0.895137        -1.382408
 O         4.601664         0.367762        -0.766574
 C         4.577712        -0.990875        -0.224723
 C         3.154717        -1.191958        -1.019818
 O         1.757365        -1.484823        -0.469097
 H        -0.332711        -0.950865         0.827429
 H        -0.023903         0.837560         1.004303
 H        -0.727141         0.337045        -0.542509
 H         2.640779         1.640017         0.712746
 H         2.734840         0.299570         1.728597
 H         1.953610         1.957860        -1.183073
 H         1.752232         0.423143        -2.268528
 H         5.461285        -1.557124        -0.586760
 H         4.576426        -0.931026         0.854938
 H         3.101967        -1.740424        -2.026839
