19
Iteration:  4008
 C        -0.084169        -0.044032         0.088339
 C         1.361736        -0.006031        -0.095343
 C         2.498876         0.767256         0.743598
 C         3.185490         0.338397        -0.637247
 C         1.958689         0.752229        -1.290767
 O         4.647745         0.301187        -0.935835
 C         4.667862        -1.116445        -0.475584
 C         3.152026        -1.177266        -0.750660
 O         1.853182        -1.408530        -0.286869
 H        -0.446170         0.082272        -0.928091
 H        -0.411000        -1.080331         0.339002
 H        -0.502235         0.787706         0.678547
 H         2.135817         1.754975         0.676897
 H         2.749006         0.367002         1.747443
 H         1.560623         1.849001        -1.439965
 H         1.692133         0.436499        -2.317432
 H         5.528460        -1.637967        -1.137725
 H         4.964294        -1.273838         0.627542
 H         3.396838        -1.315917        -1.921730
