19
Iteration:   756
 C        -0.155543         0.131793         0.210713
 C         1.342910         0.061355        -0.141525
 C         2.500635         0.411083         0.749546
 C         3.208382         0.297848        -0.703350
 C         1.958816         0.884847        -1.261550
 O         4.687015         0.350657        -0.810962
 C         4.613306        -1.109738        -0.471351
 C         3.151437        -1.165617        -0.961281
 O         1.932169        -1.495580        -0.389227
 H        -0.688729        -0.739627         0.723634
 H        -0.187962         1.113081         0.820165
 H        -0.606465         0.278757        -0.809794
 H         2.483338         1.464539         1.110409
 H         2.615559        -0.272077         1.549111
 H         1.737266         1.840169        -0.833350
 H         1.623983         0.798885        -2.352827
 H         5.467583        -1.527457        -0.920120
 H         4.615036        -1.050860         0.684969
 H         3.167727        -1.309255        -2.084996
