19
Iteration:  4304
 C        -0.222789         0.012734         0.212064
 C         1.368424         0.005757        -0.146548
 C         2.526973         0.545920         0.655928
 C         3.226408         0.424559        -0.772747
 C         1.913038         0.755474        -1.429428
 O         4.785758         0.333336        -0.781984
 C         4.653625        -1.077994        -0.416187
 C         3.147252        -1.117455        -0.906396
 O         1.857735        -1.399732        -0.209449
 H        -0.698353        -0.856179        -0.314123
 H        -0.481918         0.057770         1.324191
 H        -0.694814         0.922050        -0.276917
 H         2.541014         1.549955         1.069041
 H         2.927429        -0.135024         1.401712
 H         1.425887         1.713576        -1.344084
 H         1.752826         0.158294        -2.409427
 H         5.295556        -1.700396        -0.940541
 H         4.817554        -1.256495         0.654854
 H         3.039809        -1.549846        -1.915809
