19
Iteration:  3214
 C        -0.110909        -0.035024         0.161575
 C         1.345467        -0.086782        -0.083291
 C         2.506281         0.646427         0.646693
 C         3.216875         0.314113        -0.690729
 C         2.043335         0.761533        -1.345989
 O         4.647548         0.359935        -0.882256
 C         4.693005        -1.010318        -0.373225
 C         3.108970        -1.170518        -0.866749
 O         1.808055        -1.428369        -0.275284
 H        -0.765447        -0.590145        -0.600360
 H        -0.508257        -0.171258         1.119050
 H        -0.336200         1.036443        -0.136322
 H         2.313263         1.678203         0.627239
 H         2.895677         0.164660         1.549089
 H         1.752567         1.862563        -1.255654
 H         1.881503         0.533389        -2.377760
 H         5.514291        -1.654262        -0.826910
 H         4.837439        -0.963478         0.688669
 H         3.057452        -1.416170        -1.899550
