19
Iteration:  2003
 C        -0.126870        -0.050286         0.368115
 C         1.309389         0.075305        -0.191485
 C         2.541616         0.493833         0.658968
 C         3.287859         0.386587        -0.678153
 C         1.911853         0.895037        -1.428374
 O         4.771314         0.268873        -0.763981
 C         4.637507        -1.166978        -0.308517
 C         3.113888        -1.060853        -0.926819
 O         1.773648        -1.360171        -0.472427
 H        -0.218076        -1.175458         0.728308
 H        -0.324003         0.753782         1.009944
 H        -0.751129         0.052672        -0.534582
 H         2.572584         1.528986         1.024527
 H         2.891866        -0.183255         1.465688
 H         1.482258         1.934640        -1.426157
 H         1.832699         0.593783        -2.559438
 H         5.130724        -1.976991        -0.971367
 H         4.770700        -1.214801         0.792325
 H         3.358921        -1.296195        -1.931440
