19
Iteration:  3876charge 0 multiplicity 1
 C        -0.110621        -0.026779         0.173162
 C         1.371507        -0.062607        -0.029198
 C         2.551692         0.665693         0.621042
 C         3.224334         0.366650        -0.719341
 C         1.947684         0.867270        -1.413911
 O         4.657157         0.330706        -0.766394
 C         4.626816        -1.116879        -0.413458
 C         3.182516        -1.175752        -0.890860
 O         1.822249        -1.398099        -0.315362
 H        -0.563091        -0.993971        -0.152231
 H        -0.462275        -0.000240         1.170805
 H        -0.665573         0.679627        -0.390480
 H         2.333580         1.699206         0.779171
 H         2.975529         0.277420         1.511161
 H         1.689454         1.885351        -1.249288
 H         1.713387         0.324248        -2.354130
 H         5.383543        -1.815409        -0.952870
 H         4.890367        -1.044144         0.643494
 H         3.077915        -1.718363        -1.881028
