19
Iteration:  1477charge 0 multiplicity 1
 C        -0.109919        -0.074346         0.365023
 C         1.328638         0.103820        -0.152898
 C         2.561739         0.541040         0.694806
 C         3.263825         0.348887        -0.621500
 C         1.906935         0.890884        -1.392677
 O         4.751829         0.282992        -0.661563
 C         4.564899        -1.233101        -0.472450
 C         3.173769        -1.055070        -1.030075
 O         1.803661        -1.328155        -0.479190
 H         0.104262        -0.300169         1.391127
 H        -0.586062         0.882674         0.099086
 H        -0.602502        -0.916888        -0.126522
 H         2.158246         1.567718         1.030388
 H         2.794964        -0.302672         1.384530
 H         1.583336         1.913665        -1.414696
 H         1.757005         0.522433        -2.354554
 H         5.238794        -1.805844        -1.115506
 H         4.692132        -1.469133         0.572438
 H         3.264730        -1.204776        -2.153449
