19
Iteration:  2900charge 0 multiplicity 1
 C        -0.132520        -0.053450         0.227945
 C         1.311704         0.042710        -0.170058
 C         2.477904         0.598615         0.719404
 C         3.261827         0.366219        -0.648448
 C         1.903080         0.803615        -1.428487
 O         4.814191         0.305304        -0.762265
 C         4.669566        -1.122293        -0.448042
 C         3.095778        -1.127314        -0.917828
 O         1.852787        -1.372975        -0.329033
 H        -0.511560        -1.063998         0.536219
 H        -0.376444         0.739301         0.848710
 H        -0.734333         0.478651        -0.550960
 H         2.372034         1.664780         0.973573
 H         2.672148        -0.028915         1.696845
 H         1.350644         1.754979        -1.535250
 H         1.866871         0.246298        -2.309321
 H         5.370483        -1.778998        -0.997326
 H         4.810260        -1.331250         0.589072
 H         3.037083        -1.269606        -2.059498
