19
Iteration:  3612
 C        -0.003816         0.029932         0.347252
 C         1.408730        -0.105732        -0.110156
 C         2.421556         0.649989         0.566127
 C         3.258206         0.396916        -0.735187
 C         1.876825         0.797603        -1.453059
 O         4.691372         0.334993        -0.760602
 C         4.536799        -1.105917        -0.295146
 C         3.182644        -1.150659        -0.979345
 O         1.874850        -1.456222        -0.391211
 H        -0.742266        -0.333721        -0.391734
 H        -0.179689        -0.508331         1.298937
 H        -0.216792         1.144626         0.561232
 H         2.221335         1.692374         0.733154
 H         2.721626         0.324006         1.578838
 H         1.754920         1.936445        -1.376776
 H         1.677268         0.416506        -2.453185
 H         5.263659        -1.770052        -0.683930
 H         4.501546        -1.170231         0.788327
 H         3.339485        -1.518254        -1.973721
