19
Iteration:  3403
 C        -0.101013        -0.054455         0.284754
 C         1.371373         0.026806        -0.170278
 C         2.505081         0.634411         0.618942
 C         3.247606         0.384182        -0.713848
 C         1.916254         0.729399        -1.447766
 O         4.728162         0.349921        -0.781938
 C         4.596177        -1.067786        -0.328052
 C         3.104884        -1.191915        -0.876205
 O         1.825300        -1.385025        -0.360388
 H        -0.609303        -0.639864        -0.502759
 H         0.097977        -0.575505         1.321570
 H        -0.546715         0.948419         0.397746
 H         2.487913         1.740563         0.715063
 H         2.777146        -0.041968         1.411641
 H         1.658432         1.776984        -1.313620
 H         1.835223         0.411005        -2.560643
 H         5.442998        -1.572423        -0.769005
 H         4.744750        -1.023249         0.786798
 H         3.138802        -1.564132        -1.878715
