19
Iteration:  1176charge 0 multiplicity 1
 C        -0.204768         0.063268         0.366766
 C         1.359519         0.057950        -0.148589
 C         2.591308         0.452809         0.694299
 C         3.273869         0.354102        -0.660761
 C         1.871907         0.902035        -1.337684
 O         4.684318         0.232575        -0.763541
 C         4.622661        -1.107077        -0.332572
 C         3.236420        -1.113725        -0.982559
 O         1.825413        -1.405509        -0.586138
 H        -0.422280        -1.003220         0.769053
 H        -0.383693         1.062256         0.966792
 H        -0.759337         0.225895        -0.605585
 H         2.650631         1.501707         0.944879
 H         2.860866        -0.055185         1.595482
 H         1.607616         1.968577        -1.054381
 H         1.726477         0.523081        -2.381830
 H         5.401717        -1.765681        -0.756823
 H         4.563717        -1.153599         0.770279
 H         3.158290        -1.428357        -2.105229
