19
Iteration:   995
 C        -0.042412         0.079594         0.317497
 C         1.382209         0.058454        -0.105333
 C         2.483839         0.416190         0.703137
 C         3.293474         0.379767        -0.687706
 C         1.995120         0.857692        -1.290174
 O         4.721325         0.343277        -0.738974
 C         4.522116        -1.081330        -0.395733
 C         3.101128        -1.124726        -1.066001
 O         1.822385        -1.459205        -0.502425
 H        -0.534052        -0.848988         0.736538
 H        -0.339218         0.751473         1.216278
 H        -0.588035         0.239282        -0.648515
 H         2.324745         1.498561         0.948439
 H         2.692701        -0.406629         1.485236
 H         1.797811         2.039476        -1.294637
 H         1.709347         0.463783        -2.348515
 H         5.224964        -1.819080        -0.838506
 H         4.630586        -1.214308         0.732215
 H         3.129814        -1.450283        -2.096438
