19
Iteration:  2223
 C        -0.095205        -0.009576         0.066429
 C         1.369736         0.006731        -0.049135
 C         2.549570         0.657368         0.717938
 C         3.172428         0.344288        -0.650362
 C         2.000828         0.956771        -1.372852
 O         4.624881         0.271792        -0.725355
 C         4.626788        -1.179955        -0.494584
 C         3.149676        -1.139145        -0.892019
 O         1.865009        -1.454766        -0.343872
 H        -0.489023        -1.002644         0.461979
 H        -0.168627         0.711702         1.020038
 H        -0.746833         0.394139        -0.727651
 H         2.234788         1.646118         0.940007
 H         2.929983         0.119860         1.558394
 H         1.863854         2.115623        -1.187290
 H         1.759865         0.571617        -2.367115
 H         5.236552        -1.685221        -1.225689
 H         4.837314        -1.729045         0.462313
 H         2.988135        -1.430453        -1.985193
