19
Iteration:  4763charge 0 multiplicity 1
 C        -0.089986        -0.018512         0.354520
 C         1.343943        -0.009442        -0.156755
 C         2.539820         0.540395         0.562724
 C         3.252534         0.406654        -0.731666
 C         1.847166         0.844785        -1.513734
 O         4.737148         0.274295        -0.693072
 C         4.533829        -1.170946        -0.277585
 C         3.199509        -1.050859        -0.943009
 O         1.868196        -1.336526        -0.405541
 H        -0.416754        -1.060371         0.061716
 H        -0.117316        -0.030670         1.464200
 H        -0.752206         0.621343        -0.224545
 H         2.351483         1.592861         0.895568
 H         2.835119         0.143278         1.578047
 H         1.560557         1.894171        -1.567077
 H         1.727394         0.191205        -2.385957
 H         5.290780        -1.748449        -0.861760
 H         4.671847        -1.294842         0.860654
 H         3.214223        -1.388463        -2.036158
