19
Iteration:  3258
 C        -0.068453        -0.041172         0.397648
 C         1.368666        -0.043241        -0.245020
 C         2.528050         0.642775         0.546491
 C         3.255492         0.380594        -0.788768
 C         1.831208         0.700059        -1.514900
 O         4.750245         0.322883        -0.733815
 C         4.561102        -1.072231        -0.204632
 C         3.209648        -1.113127        -0.960784
 O         1.802083        -1.317170        -0.311018
 H        -0.874292         0.004487        -0.444528
 H         0.018289        -1.073306         0.711817
 H        -0.430210         0.600288         1.261140
 H         2.505600         1.744429         0.701267
 H         2.789362        -0.019577         1.401004
 H         1.530529         1.777161        -1.614253
 H         1.723669         0.315248        -2.520790
 H         5.390106        -1.664831        -0.723648
 H         4.529389        -1.215447         0.847952
 H         3.322370        -1.573292        -1.920821
