19
Iteration:  2282
 C        -0.059303         0.034026         0.250146
 C         1.405452        -0.011961        -0.164067
 C         2.512267         0.470731         0.657920
 C         3.236280         0.359462        -0.669244
 C         1.964595         0.961626        -1.341618
 O         4.685108         0.301110        -0.803151
 C         4.593005        -1.124869        -0.305252
 C         3.114781        -1.140706        -0.911219
 O         1.804891        -1.432201        -0.477616
 H        -0.127231        -0.345052         1.267200
 H        -0.374896         1.078549         0.286723
 H        -0.768508        -0.544294        -0.432443
 H         2.385928         1.555831         0.959959
 H         2.690300        -0.291003         1.483400
 H         1.627668         1.923483        -1.045383
 H         1.910531         0.806756        -2.426408
 H         5.374576        -1.678167        -0.904848
 H         4.535456        -1.226188         0.782139
 H         3.270840        -1.341096        -1.941638
