19
Iteration:  3173
 C        -0.238019         0.020523         0.108395
 C         1.302014        -0.033100        -0.125714
 C         2.536641         0.566156         0.664243
 C         3.278683         0.360846        -0.671096
 C         1.937364         0.819861        -1.432828
 O         4.675810         0.350744        -0.835295
 C         4.656306        -1.108180        -0.435160
 C         3.135245        -1.095341        -0.824069
 O         1.953298        -1.431361        -0.205740
 H        -0.674242        -1.024117         0.106831
 H        -0.613365         0.290221         1.094247
 H        -0.633586         0.662223        -0.657868
 H         2.488135         1.656260         0.975252
 H         2.820700        -0.151576         1.452860
 H         1.818862         1.898792        -1.241208
 H         1.704272         0.377242        -2.411678
 H         5.390018        -1.742188        -1.044043
 H         4.850676        -1.241108         0.634490
 H         3.057841        -1.379068        -1.910338
