19
Iteration:  3785charge 0 multiplicity 1
 C        -0.021997        -0.062733         0.287715
 C         1.411046         0.007293        -0.134633
 C         2.542208         0.689154         0.635086
 C         3.237491         0.401328        -0.746011
 C         1.812474         0.745193        -1.499472
 O         4.705524         0.252414        -0.807615
 C         4.548237        -1.110566        -0.271229
 C         3.150012        -1.126535        -0.901030
 O         1.854019        -1.333738        -0.395368
 H        -0.711643        -0.272029        -0.526254
 H        -0.340781        -0.808735         1.043742
 H        -0.253160         0.839232         0.981980
 H         2.418987         1.771069         0.771933
 H         2.870187         0.089046         1.531605
 H         1.565172         1.848497        -1.439496
 H         1.576657         0.049192        -2.319636
 H         5.299502        -1.861450        -0.484684
 H         4.575449        -0.953786         0.910254
 H         3.464303        -1.490534        -1.932868
