19
Iteration:   821charge 0 multiplicity 1
 C        -0.079892        -0.087352         0.260888
 C         1.332427         0.124902        -0.127165
 C         2.498295         0.618474         0.754544
 C         3.268922         0.346800        -0.755362
 C         1.959836         1.035699        -1.339785
 O         4.632355         0.263921        -0.698333
 C         4.604993        -1.254557        -0.451836
 C         3.122507        -1.110885        -1.007525
 O         1.938432        -1.467527        -0.434210
 H        -0.266467        -0.827430         1.085512
 H        -0.511345         0.942850         0.548039
 H        -0.744639        -0.353609        -0.573714
 H         2.484354         1.534785         1.191615
 H         2.795351         0.017852         1.548730
 H         1.677776         2.057342        -1.093942
 H         1.594901         0.859055        -2.399762
 H         5.270482        -1.897507        -0.974643
 H         4.499913        -1.468267         0.654550
 H         3.156772        -1.261978        -2.130984
