19
Iteration:  4177charge 0 multiplicity 1
 C        -0.148986         0.032835         0.093261
 C         1.348550        -0.000879        -0.183383
 C         2.466521         0.601350         0.705351
 C         3.206150         0.358447        -0.615879
 C         1.849964         0.740576        -1.397941
 O         4.752049         0.351756        -0.909816
 C         4.697883        -1.111811        -0.478945
 C         3.261600        -1.133448        -0.774698
 O         1.836863        -1.401182        -0.163845
 H        -0.866537        -0.023302        -0.778033
 H        -0.364125        -0.885965         0.644197
 H        -0.548006         0.955743         0.553919
 H         2.424725         1.743820         0.928658
 H         2.626845        -0.120881         1.550679
 H         1.573692         1.760330        -1.446924
 H         1.731988         0.209277        -2.342198
 H         5.206383        -1.862248        -1.101020
 H         5.121212        -1.074704         0.600383
 H         3.065963        -1.329832        -1.855811
