19
Iteration:  4412
 C        -0.083045         0.011912         0.385221
 C         1.418142        -0.095010        -0.158445
 C         2.557778         0.732833         0.553825
 C         3.253524         0.426314        -0.766252
 C         1.917341         0.790014        -1.451444
 O         4.669655         0.351533        -0.769015
 C         4.537024        -1.141940        -0.207552
 C         3.162194        -1.190505        -0.940461
 O         1.843378        -1.485230        -0.445262
 H        -0.899392         0.192992        -0.303670
 H        -0.231440        -0.936506         0.884153
 H        -0.284798         0.876865         1.025313
 H         2.305749         1.765663         0.597145
 H         2.821420         0.384247         1.520944
 H         1.546220         1.788274        -1.334285
 H         1.885507         0.523356        -2.508567
 H         5.293769        -1.689967        -0.696568
 H         4.496635        -1.154518         0.898387
 H         3.274439        -1.595166        -1.896811
