19
Iteration:  4981
 C        -0.113786         0.029353         0.082087
 C         1.429038        -0.105797        -0.213006
 C         2.534379         0.635865         0.756515
 C         3.246829         0.372810        -0.603988
 C         2.007595         0.851130        -1.357163
 O         4.622187         0.321800        -0.838675
 C         4.670547        -1.112737        -0.407871
 C         3.151360        -1.119229        -0.836019
 O         1.758874        -1.447882        -0.301793
 H        -0.697985        -0.838861        -0.316885
 H        -0.351644         0.196489         1.139969
 H        -0.457843         0.883537        -0.342946
 H         2.322978         1.685901         0.656932
 H         2.650648         0.130027         1.753563
 H         1.506285         1.770530        -1.248401
 H         1.946398         0.436117        -2.373482
 H         5.376502        -1.544188        -1.054611
 H         5.048155        -1.427416         0.537180
 H         3.017073        -1.469587        -1.804373
