19
Iteration:  2123
 C        -0.048670        -0.072834         0.295642
 C         1.370246         0.126847        -0.216384
 C         2.466892         0.484758         0.663258
 C         3.221580         0.409033        -0.685889
 C         1.974750         0.934011        -1.397295
 O         4.695684         0.247896        -0.702591
 C         4.509926        -1.213984        -0.399162
 C         3.155804        -1.046458        -0.929286
 O         1.880229        -1.398446        -0.418054
 H        -0.021285        -0.164623         1.489798
 H        -0.590906         0.857536         0.029283
 H        -0.635742        -0.855223        -0.180054
 H         2.304327         1.451448         1.065141
 H         2.927640        -0.266640         1.257749
 H         1.833533         2.078186        -1.221319
 H         1.584576         0.579900        -2.405461
 H         5.205339        -1.902685        -0.960689
 H         4.714494        -1.189477         0.664439
 H         3.227742        -1.211382        -2.038066
