19
Iteration:  1611
 C        -0.082975        -0.006289         0.234193
 C         1.313165        -0.017775        -0.208231
 C         2.582041         0.525272         0.728795
 C         3.259092         0.416540        -0.661690
 C         1.948198         0.911968        -1.382468
 O         4.701006         0.304650        -0.673207
 C         4.538592        -1.215699        -0.523499
 C         3.097791        -1.028607        -0.912878
 O         1.886160        -1.400007        -0.375884
 H        -0.449118        -1.027034         0.721311
 H        -0.318776         0.598383         1.010893
 H        -0.793344         0.143868        -0.669020
 H         2.397585         1.509712         1.212371
 H         2.993851        -0.284684         1.369199
 H         1.680099         1.934991        -1.299527
 H         1.675301         0.570535        -2.393146
 H         5.162520        -1.689534        -1.259315
 H         4.851900        -1.426482         0.499966
 H         3.107027        -1.400253        -1.952544
