19
Iteration:   496charge 0 multiplicity 1
 C        -0.045438         0.082856         0.246349
 C         1.377120         0.004965        -0.153819
 C         2.572623         0.375341         0.640673
 C         3.226728         0.319858        -0.747684
 C         1.928041         0.958657        -1.239117
 O         4.741390         0.351728        -0.736824
 C         4.621908        -1.139052        -0.395942
 C         3.127166        -1.083109        -0.947400
 O         1.744604        -1.429941        -0.472211
 H        -0.153125        -0.044701         1.306251
 H        -0.562045         1.069193         0.064460
 H        -0.611768        -0.734970        -0.363303
 H         2.278051         1.368663         1.077149
 H         2.915906        -0.321727         1.447984
 H         1.662476         1.966377        -0.866569
 H         1.445671         0.843359        -2.191330
 H         5.123518        -1.885436        -0.978868
 H         4.766667        -1.339073         0.676669
 H         3.233473        -1.479102        -1.928642
