19
Iteration:  4878
 C        -0.092067        -0.023057         0.279417
 C         1.354351         0.035889        -0.253572
 C         2.418690         0.591733         0.530896
 C         3.270330         0.366463        -0.760299
 C         1.919127         0.859165        -1.460929
 O         4.712731         0.284133        -0.779015
 C         4.649626        -1.148164        -0.235479
 C         3.128882        -1.148944        -0.845590
 O         1.867462        -1.377329        -0.319572
 H        -0.977915         0.126397        -0.308352
 H        -0.127002        -1.078160         0.579944
 H        -0.307582         0.653571         1.196250
 H         2.429799         1.608363         0.927385
 H         2.571417         0.072494         1.450047
 H         1.659384         1.939125        -1.203455
 H         1.812059         0.549559        -2.518255
 H         5.404417        -1.754744        -0.802577
 H         4.862937        -1.053373         0.830597
 H         3.173207        -1.544522        -1.890066
