19
Iteration:  1177charge 0 multiplicity 1
 C        -0.203105         0.060577         0.356283
 C         1.354008         0.058412        -0.138663
 C         2.600237         0.456169         0.690325
 C         3.280343         0.354073        -0.662312
 C         1.871441         0.901308        -1.341174
 O         4.682914         0.230398        -0.762785
 C         4.616231        -1.104417        -0.330326
 C         3.243863        -1.111900        -0.993059
 O         1.815787        -1.403884        -0.579645
 H        -0.420566        -1.002327         0.758837
 H        -0.384707         1.055618         1.010704
 H        -0.733828         0.179426        -0.596481
 H         2.620475         1.517334         0.963259
 H         2.874354        -0.058878         1.627067
 H         1.628759         1.920212        -1.068957
 H         1.734141         0.524285        -2.354893
 H         5.367820        -1.773515        -0.746995
 H         4.571951        -1.159360         0.766487
 H         3.176489        -1.376451        -2.119028
