19
Iteration:   233charge 0 multiplicity 1
 C        -0.095612         0.106647         0.288545
 C         1.382127        -0.059349        -0.114604
 C         2.564879         0.391714         0.705042
 C         3.244960         0.384811        -0.686227
 C         1.924943         0.911749        -1.254988
 O         4.686712         0.334230        -0.857750
 C         4.564801        -1.180813        -0.317828
 C         3.154834        -1.058697        -0.962599
 O         1.826207        -1.439839        -0.519531
 H        -0.329741        -0.407869         1.210881
 H        -0.465007         1.142707         0.390691
 H        -0.613196        -0.177950        -0.608211
 H         2.361700         1.473829         0.825161
 H         2.720287        -0.380647         1.504067
 H         1.747527         2.007271        -0.955135
 H         1.797176         0.800832        -2.317413
 H         5.255024        -1.804031        -0.885993
 H         4.726312        -1.304010         0.770039
 H         3.272303        -1.193228        -2.049677
