19
Iteration:  1270
 C        -0.103551         0.094479         0.184286
 C         1.442892        -0.028126        -0.139501
 C         2.583492         0.441428         0.760186
 C         3.258970         0.352260        -0.603547
 C         1.926238         0.938989        -1.352240
 O         4.613011         0.330240        -0.749637
 C         4.593153        -1.166489        -0.514669
 C         3.141731        -1.086669        -0.914872
 O         1.786632        -1.457677        -0.428493
 H        -0.374243         0.092606         1.213610
 H        -0.261082         1.025319        -0.363199
 H        -0.873037        -0.643754        -0.324887
 H         2.496944         1.451211         1.302279
 H         2.954485        -0.269796         1.542461
 H         1.664931         1.954021        -0.952797
 H         1.916942         0.456440        -2.341667
 H         5.405076        -1.682362        -1.095318
 H         4.838065        -1.201338         0.553876
 H         3.286999        -1.272480        -1.978751
