19
Iteration:  3869charge 0 multiplicity 1
 C        -0.163330        -0.017088         0.143690
 C         1.377648        -0.063825        -0.028898
 C         2.556126         0.676954         0.669891
 C         3.206603         0.353846        -0.664252
 C         1.993701         0.766146        -1.370319
 O         4.618083         0.311676        -0.805952
 C         4.652259        -1.120119        -0.428771
 C         3.163978        -1.105320        -0.911853
 O         1.814379        -1.417597        -0.303972
 H        -0.504447        -0.944603        -0.334133
 H        -0.300373         0.070861         1.311291
 H        -0.320235         0.758227        -0.696973
 H         2.318208         1.783250         0.632424
 H         3.153703         0.467115         1.654753
 H         1.645646         1.851580        -1.282509
 H         1.804261         0.434359        -2.365974
 H         5.394461        -1.554868        -1.050239
 H         4.944923        -1.108578         0.619786
 H         3.064590        -1.530315        -1.894432
