19
Iteration:  1264charge 0 multiplicity 1
 C        -0.026992         0.064650         0.141746
 C         1.345840        -0.015595        -0.154235
 C         2.561453         0.462518         0.785857
 C         3.246985         0.400760        -0.584745
 C         1.945203         0.853768        -1.288806
 O         4.621894         0.281355        -0.736931
 C         4.671775        -1.137296        -0.534611
 C         3.108665        -1.074935        -0.919352
 O         1.768521        -1.424663        -0.419777
 H        -0.250138         0.059390         1.252270
 H        -0.332732         1.062055        -0.343743
 H        -0.688690        -0.548556        -0.355930
 H         2.485163         1.446440         1.161904
 H         3.096319        -0.195037         1.464564
 H         1.654449         1.922621        -1.215907
 H         1.725955         0.645452        -2.366410
 H         5.293571        -1.716528        -1.215365
 H         4.838795        -1.356275         0.539524
 H         3.259679        -1.253073        -2.017679
