19
Iteration:   795charge 0 multiplicity 1
 C        -0.087603        -0.026928         0.204865
 C         1.347776        -0.048810        -0.170022
 C         2.569361         0.480999         0.719103
 C         3.294957         0.328803        -0.570612
 C         1.974691         0.846024        -1.357370
 O         4.706557         0.297016        -0.772188
 C         4.631938        -1.053821        -0.499449
 C         3.132254        -1.095644        -0.929376
 O         1.737472        -1.316811        -0.359834
 H        -0.465946        -0.948302         0.647541
 H        -0.481547         0.799861         0.717317
 H        -0.625919         0.182328        -0.691126
 H         2.412932         1.534691         1.193038
 H         2.890325        -0.138934         1.645833
 H         1.662380         1.907900        -1.209721
 H         1.832360         0.697969        -2.398867
 H         5.210995        -1.707516        -1.220994
 H         4.634543        -1.576919         0.401353
 H         3.036738        -1.176518        -1.992484
