19
Iteration:   685charge 0 multiplicity 1
 C        -0.123322        -0.110088         0.395118
 C         1.337830        -0.041165        -0.155394
 C         2.482027         0.559325         0.613126
 C         3.315585         0.411888        -0.665250
 C         1.964109         1.009626        -1.419502
 O         4.787807         0.232679        -0.676260
 C         4.531873        -1.210665        -0.458104
 C         3.101314        -1.012786        -0.995176
 O         1.845141        -1.378993        -0.445849
 H        -0.162503        -0.319140         1.460830
 H        -0.575719         0.817655         0.162999
 H        -0.514793        -1.019047        -0.098170
 H         2.357742         1.607748         1.043845
 H         2.759394        -0.079060         1.509803
 H         1.728922         2.064809        -1.153189
 H         1.874944         0.876712        -2.473093
 H         5.217917        -1.896208        -1.072359
 H         4.460515        -1.332329         0.592820
 H         2.987861        -1.229719        -2.057990
