19
Iteration:  4343charge 0 multiplicity 1
 C        -0.026558         0.041234         0.132355
 C         1.361240        -0.055642        -0.112017
 C         2.431564         0.692906         0.730609
 C         3.216844         0.326445        -0.683487
 C         2.028410         0.841790        -1.368766
 O         4.601054         0.289989        -0.883059
 C         4.670270        -1.074192        -0.460529
 C         3.153859        -1.170717        -0.862667
 O         1.833937        -1.466217        -0.225663
 H        -0.476751        -0.812448        -0.404794
 H        -0.203564        -0.208257         1.161121
 H        -0.545917         0.807362        -0.390073
 H         2.293640         1.774334         0.924569
 H         2.722084         0.231234         1.718331
 H         1.512495         1.801121        -1.187032
 H         1.942891         0.684769        -2.409469
 H         5.462571        -1.511182        -1.176942
 H         4.788363        -1.135838         0.636556
 H         3.085130        -1.613478        -1.892362
