19
Iteration:  4023
 C        -0.169973        -0.051705         0.079728
 C         1.352830         0.017921        -0.090593
 C         2.468099         0.662911         0.718111
 C         3.294743         0.384799        -0.637158
 C         1.862896         0.740178        -1.372549
 O         4.722917         0.283940        -0.906113
 C         4.719751        -1.128319        -0.432771
 C         3.164778        -1.073606        -0.861130
 O         1.863159        -1.374979        -0.247978
 H        -0.715405        -0.155138        -0.874877
 H        -0.484357        -0.895902         0.766383
 H        -0.646382         0.736006         0.727711
 H         2.405361         1.757169         0.965279
 H         2.812740         0.178879         1.653491
 H         1.621013         1.794180        -1.371758
 H         1.639148         0.219259        -2.292145
 H         5.252970        -1.806537        -1.030170
 H         5.020848        -1.144840         0.651771
 H         2.974869        -1.426124        -1.830923
