19
Iteration:  4314charge 0 multiplicity 1
 C        -0.216675         0.075984         0.159365
 C         1.325869        -0.018900        -0.088505
 C         2.545915         0.582241         0.674190
 C         3.249055         0.371490        -0.725639
 C         1.880981         0.685962        -1.361061
 O         4.759396         0.343217        -0.813215
 C         4.639935        -1.095227        -0.461643
 C         3.190265        -1.090000        -0.831106
 O         1.864950        -1.411292        -0.266819
 H        -0.479265        -0.903314        -0.293378
 H        -0.637033         0.018774         1.213201
 H        -0.677745         0.923656        -0.416953
 H         2.463323         1.629836         0.803900
 H         2.945492        -0.020298         1.495388
 H         1.575160         1.730424        -1.342912
 H         1.668168         0.324560        -2.431023
 H         5.259444        -1.647325        -1.124320
 H         4.872587        -1.285039         0.587862
 H         3.210018        -1.394690        -1.849270
