19
Iteration:  4222charge 0 multiplicity 1
 C        -0.021253        -0.002244         0.263423
 C         1.349944        -0.005601        -0.212544
 C         2.545447         0.581710         0.669955
 C         3.278293         0.339011        -0.828694
 C         1.845968         0.778191        -1.501382
 O         4.687547         0.379429        -0.816451
 C         4.563065        -1.058191        -0.257279
 C         3.149291        -1.151759        -0.846189
 O         1.874490        -1.452945        -0.289273
 H        -0.864086         0.226103        -0.472575
 H        -0.389293        -0.942940         0.746706
 H        -0.125091         0.852305         0.963882
 H         2.385597         1.749055         0.750469
 H         2.964921        -0.027226         1.523547
 H         1.534206         1.842264        -1.417331
 H         1.555591         0.456678        -2.490038
 H         5.472437        -1.609219        -0.680657
 H         4.501276        -1.063736         0.865344
 H         3.016761        -1.657702        -1.805938
