19
Iteration:  4096
 C        -0.140919        -0.011295         0.431218
 C         1.325192         0.009309        -0.221739
 C         2.517870         0.520187         0.592362
 C         3.173524         0.426633        -0.766442
 C         1.882917         0.725650        -1.475406
 O         4.805053         0.298692        -0.803033
 C         4.648465        -1.087939        -0.186176
 C         3.182136        -1.021646        -0.869223
 O         1.825176        -1.411866        -0.503272
 H        -0.625142        -0.869229         0.073936
 H        -0.113210         0.224523         1.478905
 H        -0.692033         0.884418         0.246195
 H         2.415359         1.483586         1.008527
 H         2.825082        -0.047568         1.475676
 H         1.483991         1.799671        -1.560332
 H         1.721753         0.225758        -2.421282
 H         5.426792        -1.738594        -0.689360
 H         4.866642        -1.133893         0.928365
 H         3.109267        -1.324281        -1.962720
