19
Iteration:  4169charge 0 multiplicity 1
 C        -0.117786         0.023061         0.072225
 C         1.296669        -0.012712        -0.174478
 C         2.436876         0.594279         0.681702
 C         3.264857         0.366006        -0.652143
 C         1.856115         0.715082        -1.357949
 O         4.761554         0.310463        -0.905226
 C         4.720012        -1.098499        -0.449154
 C         3.198286        -1.059015        -0.808294
 O         1.819173        -1.362748        -0.141290
 H        -0.643047        -0.374625        -0.943552
 H        -0.346685        -0.832334         0.875319
 H        -0.549186         0.936316         0.615942
 H         2.408407         1.722349         1.081467
 H         2.804572        -0.216257         1.457408
 H         1.487406         1.809556        -1.487707
 H         1.806556         0.278369        -2.373086
 H         5.359001        -1.728096        -1.218271
 H         5.081259        -1.247276         0.581946
 H         3.011371        -1.420479        -1.839222
