19
Iteration:  2025charge 0 multiplicity 1
 C        -0.081483         0.041407         0.208450
 C         1.389340        -0.022451        -0.159732
 C         2.526778         0.608193         0.756696
 C         3.224026         0.287309        -0.677667
 C         1.977486         0.904118        -1.235995
 O         4.643052         0.280944        -0.829825
 C         4.630877        -1.117936        -0.378607
 C         3.139594        -1.163711        -0.927574
 O         1.801008        -1.392204        -0.494703
 H        -0.269225        -0.967641         0.791233
 H        -0.367685         0.937664         0.708226
 H        -0.693218        -0.089079        -0.697574
 H         2.404176         1.665776         1.019579
 H         2.993812         0.055429         1.594994
 H         1.844250         2.020293        -1.185993
 H         1.533483         0.546966        -2.246010
 H         5.380596        -1.836954        -0.891464
 H         4.657197        -1.049982         0.723850
 H         3.299296        -1.522838        -1.914598
