19
Iteration:  1714charge 0 multiplicity 1
 C        -0.123240        -0.029959         0.167658
 C         1.353306         0.047084        -0.052981
 C         2.589614         0.581482         0.755206
 C         3.263797         0.366262        -0.574100
 C         1.924341         0.939629        -1.277968
 O         4.676807         0.266162        -0.726103
 C         4.613400        -1.203429        -0.538561
 C         3.106970        -1.100744        -0.969037
 O         1.845893        -1.439447        -0.472664
 H        -0.394655        -0.199450         1.208549
 H        -0.622980         0.968384        -0.153963
 H        -0.633358        -0.787796        -0.368624
 H         2.275726         1.580208         1.029428
 H         2.941167         0.013856         1.615599
 H         1.603904         2.058903        -1.408598
 H         1.686204         0.509634        -2.327455
 H         5.446616        -1.560771        -1.210704
 H         4.964650        -1.485944         0.499221
 H         3.201714        -1.108257        -2.079530
