19
Iteration:  3555
 C        -0.185615        -0.016156         0.215388
 C         1.312148        -0.070742        -0.125999
 C         2.489487         0.665850         0.648217
 C         3.275850         0.316055        -0.740685
 C         1.905396         0.841337        -1.415808
 O         4.699062         0.276385        -0.862808
 C         4.786203        -1.024289        -0.329680
 C         3.137705        -1.176663        -0.856284
 O         1.826697        -1.414073        -0.320543
 H        -0.918957        -0.054303        -0.558080
 H        -0.393030        -0.969853         0.865733
 H        -0.298758         0.843724         0.935242
 H         2.514949         1.765252         0.586297
 H         2.744842         0.269276         1.642822
 H         1.733520         1.914885        -1.168650
 H         1.621113         0.667718        -2.493757
 H         5.566053        -1.550786        -0.815279
 H         4.731097        -1.043514         0.792694
 H         3.203178        -1.644963        -1.856637
