19
Iteration:  3491charge 0 multiplicity 1
 C        -0.206816        -0.037408         0.140524
 C         1.314009         0.019394        -0.107540
 C         2.540432         0.630985         0.596464
 C         3.285151         0.337287        -0.681720
 C         1.919016         0.860347        -1.352272
 O         4.692679         0.343797        -0.787936
 C         4.652717        -1.140701        -0.463991
 C         3.138238        -1.120040        -0.836789
 O         1.912238        -1.511634        -0.249315
 H        -0.754893        -0.808802        -0.336797
 H        -0.371860        -0.045645         1.306205
 H        -0.828516         0.848660        -0.219621
 H         2.459889         1.706620         0.536851
 H         2.778994         0.375597         1.617488
 H         1.762001         1.950188        -1.125907
 H         1.560343         0.580756        -2.380256
 H         5.212413        -1.561641        -1.221239
 H         5.205994        -1.096532         0.480737
 H         3.157685        -1.445619        -1.848920
