19
Iteration:   102charge 0 multiplicity 1
 C        -0.081451         0.061554         0.193983
 C         1.380988         0.005311        -0.086847
 C         2.534580         0.401398         0.799780
 C         3.245082         0.357564        -0.733631
 C         1.922279         0.846552        -1.260848
 O         4.687968         0.367957        -0.869676
 C         4.720697        -1.126703        -0.439954
 C         3.130202        -1.152594        -0.827013
 O         1.703822        -1.358359        -0.471756
 H        -0.688593        -0.349882         1.123043
 H        -0.317262         1.106169         0.027322
 H        -0.436937        -0.508017        -0.659494
 H         2.560673         1.373708         1.289452
 H         2.955291        -0.254899         1.565500
 H         1.714395         1.929212        -0.993787
 H         1.528880         0.733578        -2.312631
 H         5.259311        -1.728895        -1.225083
 H         5.324226        -1.098551         0.446879
 H         3.167141        -1.647125        -1.804381
