19
Iteration:  4418
 C        -0.088125         0.016672         0.418080
 C         1.356993        -0.020435        -0.191996
 C         2.579068         0.676929         0.574004
 C         3.199919         0.383662        -0.738828
 C         1.945002         0.759254        -1.542000
 O         4.688255         0.329572        -0.766187
 C         4.523689        -1.086406        -0.226343
 C         3.159536        -1.157187        -0.926877
 O         1.880511        -1.498309        -0.422733
 H        -0.912207         0.242261        -0.313406
 H        -0.265472        -0.965806         0.904077
 H        -0.282220         0.893616         1.069589
 H         2.250306         1.744309         0.728025
 H         2.884106         0.185985         1.562562
 H         1.608454         1.795587        -1.210989
 H         1.861904         0.603776        -2.630800
 H         5.383054        -1.775231        -0.553720
 H         4.559853        -1.056067         0.871716
 H         3.270863        -1.420179        -2.061407
