19
Iteration:  4605charge 0 multiplicity 1
 C        -0.018917        -0.020790         0.300614
 C         1.317676         0.021372        -0.200579
 C         2.498271         0.706423         0.668447
 C         3.195455         0.274117        -0.694174
 C         1.916917         0.838653        -1.393799
 O         4.667569         0.330567        -0.809831
 C         4.664137        -1.068290        -0.288663
 C         3.199080        -1.233370        -0.946412
 O         1.770556        -1.462206        -0.416920
 H        -0.730035        -0.057372        -0.535847
 H        -0.219827        -0.854739         0.971283
 H        -0.198307         0.913203         0.772777
 H         2.361504         1.785886         0.823300
 H         2.676195         0.183713         1.630231
 H         2.047099         1.910906        -1.303106
 H         1.601232         0.491248        -2.392805
 H         5.549353        -1.508150        -0.690511
 H         4.829729        -1.112875         0.752850
 H         3.365090        -1.444502        -2.008085
