19
Iteration:  3452
 C        -0.081573         0.021811         0.366544
 C         1.349144         0.018309        -0.270219
 C         2.505696         0.437244         0.656184
 C         3.291161         0.383146        -0.730990
 C         1.922955         0.747990        -1.457031
 O         4.746321         0.387760        -0.829149
 C         4.583522        -0.999493        -0.267470
 C         3.161323        -1.086401        -0.948052
 O         1.786451        -1.449159        -0.341859
 H        -0.532088        -0.996814         0.187068
 H        -0.014993         0.219666         1.384765
 H        -0.631471         0.865019        -0.082622
 H         2.427608         1.492980         0.976919
 H         2.596136        -0.274161         1.523641
 H         1.560853         1.779345        -1.594613
 H         1.733306         0.195589        -2.337952
 H         5.340985        -1.851391        -0.533976
 H         4.586699        -0.991625         0.835729
 H         3.193924        -1.299741        -2.074188
