19
Iteration:  2299
 C        -0.019384         0.065116         0.286060
 C         1.344992        -0.050961        -0.255878
 C         2.548609         0.499098         0.747347
 C         3.262180         0.293178        -0.684374
 C         2.018462         0.835252        -1.316101
 O         4.680480         0.409616        -0.720821
 C         4.569861        -1.099550        -0.347697
 C         3.142455        -1.159146        -1.028475
 O         1.707382        -1.424684        -0.516351
 H        -0.040603         0.012849         1.396489
 H        -0.336774         1.171517         0.097365
 H        -0.548859        -0.773869        -0.131216
 H         2.369324         1.518889         0.923655
 H         2.901037         0.177984         1.684730
 H         1.950931         1.952680        -1.000465
 H         1.570870         0.618706        -2.299672
 H         5.258336        -1.852131        -0.650235
 H         4.601834        -1.070928         0.768601
 H         3.227047        -1.688570        -2.072867
