19
Iteration:   861
 C        -0.084958         0.001293         0.326939
 C         1.417009         0.012041        -0.119471
 C         2.585131         0.434288         0.771425
 C         3.267287         0.458849        -0.630019
 C         1.955641         0.867181        -1.421560
 O         4.696128         0.330036        -0.764775
 C         4.536598        -1.185110        -0.354741
 C         3.154555        -1.059560        -0.964921
 O         1.726821        -1.393137        -0.575527
 H        -0.168498        -0.136442         1.433563
 H        -0.576451         0.954762         0.047861
 H        -0.569638        -0.731080        -0.213986
 H         2.458880         1.422458         1.379767
 H         2.823269        -0.501861         1.353535
 H         1.733175         1.938653        -1.344342
 H         1.738500         0.564403        -2.447140
 H         5.339300        -1.655730        -0.963691
 H         4.774560        -1.428733         0.636213
 H         3.271009        -1.336533        -1.992278
