19
Iteration:  3578charge 0 multiplicity 1
 C        -0.039942         0.020096         0.339264
 C         1.316063         0.055726        -0.192301
 C         2.520225         0.549915         0.605180
 C         3.249527         0.338008        -0.760953
 C         1.860696         0.761415        -1.492845
 O         4.693417         0.385009        -0.838189
 C         4.616072        -1.055966        -0.208825
 C         3.209474        -1.175148        -0.843638
 O         1.798828        -1.431338        -0.402722
 H        -0.794861         0.008585        -0.426478
 H        -0.171247        -0.967535         0.907715
 H        -0.208544         0.888410         1.076040
 H         2.526664         1.551955         1.045018
 H         2.694981        -0.304070         1.256909
 H         1.749287         1.904796        -1.509728
 H         1.588188         0.345451        -2.476333
 H         5.290948        -1.676878        -0.685853
 H         4.859019        -0.842904         0.846036
 H         3.371178        -1.667842        -1.793819
