19
Iteration:  4626charge 0 multiplicity 1
 C        -0.186184        -0.047487         0.213820
 C         1.315531         0.021841        -0.136338
 C         2.551280         0.557042         0.656042
 C         3.247762         0.392975        -0.734256
 C         1.964894         0.794578        -1.461898
 O         4.702609         0.313696        -0.800418
 C         4.699207        -1.094379        -0.405333
 C         3.149869        -1.134542        -0.769217
 O         1.800819        -1.334789        -0.322344
 H        -0.840412         0.064912        -0.690505
 H        -0.253144        -1.100080         0.602672
 H        -0.534355         0.668918         0.916043
 H         2.439267         1.613090         0.906970
 H         2.838940         0.042643         1.601126
 H         1.480616         1.774194        -1.287983
 H         1.896340         0.351343        -2.501440
 H         5.260747        -1.839869        -1.061581
 H         5.103969        -1.198227         0.653487
 H         3.214058        -1.489669        -1.784935
