19
Iteration:  3549
 C        -0.183795        -0.047523         0.197048
 C         1.327811        -0.042158        -0.125452
 C         2.530952         0.750587         0.652871
 C         3.281906         0.321607        -0.670137
 C         1.923999         0.828597        -1.418275
 O         4.681349         0.313550        -0.882040
 C         4.709905        -1.075630        -0.348159
 C         3.156497        -1.152356        -0.883594
 O         1.805396        -1.495296        -0.288812
 H        -0.821421        -0.093024        -0.725517
 H        -0.427911        -0.861784         0.803095
 H        -0.281557         0.871201         0.801690
 H         2.470797         1.835499         0.814678
 H         2.797073         0.150650         1.541803
 H         1.714187         1.886085        -1.164059
 H         1.733282         0.659086        -2.461167
 H         5.597714        -1.619001        -0.816089
 H         4.917767        -0.929644         0.720370
 H         3.112303        -1.571041        -1.891880
