19
Iteration:  3372charge 0 multiplicity 1
 C        -0.137316        -0.036761         0.130560
 C         1.362969        -0.030036        -0.122021
 C         2.449181         0.649411         0.648883
 C         3.227690         0.439830        -0.658586
 C         1.953265         0.794294        -1.497779
 O         4.703946         0.305423        -0.867695
 C         4.633296        -1.132607        -0.426586
 C         3.124700        -1.119600        -0.807035
 O         1.912966        -1.441594        -0.158635
 H        -0.718116         0.094411        -0.758159
 H        -0.377934        -1.032527         0.655526
 H        -0.413073         0.797699         0.834695
 H         2.356791         1.713146         0.979236
 H         2.815227         0.115776         1.554311
 H         1.599386         1.854397        -1.507726
 H         1.927215         0.458078        -2.586655
 H         5.313468        -1.671036        -1.049833
 H         4.853008        -1.068424         0.686932
 H         2.980777        -1.435380        -1.848558
