19
Iteration:  3752
 C        -0.007045        -0.054368         0.433541
 C         1.348034         0.033231        -0.227304
 C         2.438898         0.638672         0.501872
 C         3.256329         0.370534        -0.790978
 C         1.931371         0.843616        -1.547232
 O         4.725781         0.327883        -0.738485
 C         4.546711        -1.084737        -0.290984
 C         3.183162        -1.185873        -0.859305
 O         1.823576        -1.488692        -0.352439
 H        -0.927001         0.044633        -0.096740
 H        -0.122912        -0.910487         1.113028
 H        -0.231418         0.947033         0.979163
 H         2.350844         1.714122         0.690122
 H         2.878377         0.227507         1.444635
 H         1.684935         1.958490        -1.355379
 H         1.666689         0.648958        -2.597017
 H         5.215637        -1.875465        -0.580657
 H         4.543541        -0.888503         0.881332
 H         3.353319        -1.607847        -1.923468
