19
Iteration:  4918
 C        -0.029225        -0.028063         0.303095
 C         1.379170        -0.073340        -0.141979
 C         2.564039         0.686226         0.548977
 C         3.286955         0.388229        -0.801185
 C         1.928590         0.826974        -1.457354
 O         4.672428         0.279602        -0.724583
 C         4.557882        -1.101404        -0.194575
 C         3.136705        -1.085686        -0.855076
 O         1.794372        -1.451015        -0.438597
 H        -0.591550        -0.055860        -0.658542
 H        -0.253251        -0.945007         0.817916
 H        -0.347154         0.847760         0.900693
 H         2.220269         1.700396         0.739404
 H         2.889488         0.141266         1.453595
 H         1.601441         1.873664        -1.417024
 H         1.614672         0.486782        -2.425174
 H         5.248407        -1.634650        -0.829025
 H         4.488112        -1.249561         0.891968
 H         3.342784        -1.356018        -1.944077
