19
Iteration:  2659charge 0 multiplicity 1
 C        -0.119859         0.012691         0.295395
 C         1.320870         0.040028        -0.159737
 C         2.391911         0.596597         0.655375
 C         3.305061         0.406285        -0.719946
 C         1.931131         0.768620        -1.434953
 O         4.738051         0.298248        -0.792266
 C         4.616416        -1.114807        -0.366112
 C         3.194191        -1.151303        -0.911275
 O         1.878817        -1.457201        -0.366995
 H        -0.580657        -0.827202         0.707996
 H        -0.284105         0.838324         1.040090
 H        -0.745845         0.409547        -0.545416
 H         2.377514         1.684917         0.924614
 H         2.571991        -0.063955         1.541836
 H         1.615745         1.768777        -1.205920
 H         1.732934         0.488117        -2.478246
 H         5.409382        -1.682720        -0.777298
 H         4.644892        -0.972620         0.719537
 H         3.286534        -1.378881        -1.945442
