19
Iteration:   869charge 0 multiplicity 1
 C        -0.035145         0.094710         0.328763
 C         1.315868         0.012120        -0.135082
 C         2.589671         0.379123         0.745605
 C         3.175143         0.358397        -0.620826
 C         1.970645         0.904226        -1.375969
 O         4.673107         0.314021        -0.760457
 C         4.591182        -1.136546        -0.371008
 C         3.144089        -1.077027        -0.960415
 O         1.798891        -1.379279        -0.580297
 H        -0.185754        -0.185698         1.356399
 H        -0.700026         0.856532         0.010680
 H        -0.615904        -0.827936        -0.221426
 H         2.553516         1.314944         1.404381
 H         2.910889        -0.318890         1.565918
 H         1.775822         2.003923        -1.556818
 H         1.832277         0.432511        -2.353684
 H         5.322410        -1.731910        -1.033926
 H         4.810469        -1.255383         0.730157
 H         3.292849        -1.235702        -2.045687
