19
Iteration:  3979
 C        -0.138067         0.011070         0.168363
 C         1.314715        -0.008580        -0.197259
 C         2.535070         0.526569         0.632623
 C         3.216700         0.365387        -0.761142
 C         1.977345         0.815473        -1.436911
 O         4.704893         0.364589        -0.843154
 C         4.606471        -1.063324        -0.394769
 C         3.147260        -1.155923        -0.840903
 O         1.910962        -1.416258        -0.143678
 H        -0.703781         0.203162        -0.740345
 H        -0.601190        -0.954201         0.562909
 H        -0.529496         0.619470         1.038484
 H         2.294553         1.538620         1.058586
 H         2.839982        -0.176458         1.459443
 H         1.566744         1.813679        -1.363670
 H         1.838601         0.513343        -2.461489
 H         5.402914        -1.543605        -0.891132
 H         4.691345        -1.186525         0.702142
 H         3.009194        -1.462557        -1.871071
