19
Iteration:  1275charge 0 multiplicity 1
 C        -0.155723         0.109372         0.191868
 C         1.448654        -0.057780        -0.124146
 C         2.599258         0.431608         0.759972
 C         3.230252         0.334993        -0.627416
 C         1.952956         0.966647        -1.350326
 O         4.650143         0.368604        -0.771998
 C         4.566416        -1.171044        -0.465792
 C         3.148174        -1.116637        -0.934802
 O         1.822272        -1.466290        -0.438017
 H        -0.435045         0.183002         1.284547
 H        -0.395566         1.118349        -0.233361
 H        -0.695326        -0.655235        -0.248862
 H         2.482129         1.374370         1.207466
 H         2.746726        -0.315252         1.530907
 H         1.673290         1.961102        -1.011776
 H         1.902273         0.530752        -2.356484
 H         5.349234        -1.653142        -1.028176
 H         4.820815        -1.237244         0.600118
 H         3.082227        -1.288619        -2.036708
