19
Iteration:  2566charge 0 multiplicity 1
 C        -0.056198         0.083266         0.133494
 C         1.378893        -0.074871        -0.158526
 C         2.567170         0.500025         0.726007
 C         3.239603         0.348054        -0.623428
 C         2.003935         0.802300        -1.394906
 O         4.596453         0.407835        -0.766545
 C         4.653306        -1.091553        -0.441362
 C         3.112520        -1.145719        -0.898633
 O         1.780763        -1.446155        -0.321344
 H        -0.183218         0.271108         1.271050
 H        -0.311524         1.015140        -0.304222
 H        -0.815283        -0.644313        -0.254553
 H         2.367324         1.546851         0.861131
 H         2.949733        -0.136543         1.540479
 H         1.783824         1.912424        -1.292549
 H         1.703008         0.338277        -2.331499
 H         5.453272        -1.535293        -1.131663
 H         4.784417        -1.151035         0.636481
 H         3.008609        -1.639343        -1.953965
