19
Iteration:  4804charge 0 multiplicity 1
 C        -0.155882        -0.005633         0.155664
 C         1.339190        -0.068516        -0.183607
 C         2.478758         0.553499         0.634855
 C         3.236346         0.382292        -0.683075
 C         2.050872         0.877892        -1.355092
 O         4.695381         0.351439        -0.857577
 C         4.692692        -1.121045        -0.378142
 C         3.119982        -1.152598        -0.825756
 O         1.825770        -1.435035        -0.248489
 H        -0.623084        -0.758540        -0.467638
 H        -0.506081        -0.259365         1.183000
 H        -0.643721         1.013111        -0.076062
 H         2.240355         1.739415         0.814087
 H         3.005685         0.145176         1.568418
 H         1.650674         1.905880        -1.129841
 H         1.940199         0.787209        -2.454858
 H         5.171892        -1.738289        -1.182681
 H         4.831046        -1.212992         0.725099
 H         3.024206        -1.454602        -1.914840
