19
Iteration:    42
 C        -0.004869        -0.097919         0.395560
 C         1.368445        -0.016825        -0.264353
 C         2.564046         0.560788         0.623885
 C         3.253589         0.451654        -0.639897
 C         1.942742         0.940934        -1.399744
 O         4.700899         0.234004        -0.644216
 C         4.577515        -1.191673        -0.452667
 C         3.065422        -1.030946        -0.978790
 O         1.768245        -1.379995        -0.451478
 H        -0.035203        -0.194910         1.463077
 H        -0.582125         0.824319        -0.011672
 H        -0.401183        -1.173446         0.169968
 H         2.342080         1.627313         0.965473
 H         3.080285         0.025279         1.476674
 H         1.612667         2.005614        -1.328104
 H         1.752269         0.695540        -2.417982
 H         5.278031        -1.759091        -1.057719
 H         4.682487        -1.456096         0.675574
 H         3.128618        -1.225951        -2.071794
