19
Iteration:  3001
 C        -0.086019        -0.038810         0.192460
 C         1.383760        -0.049749        -0.159160
 C         2.437600         0.685367         0.723316
 C         3.300431         0.389712        -0.607103
 C         1.997502         0.791220        -1.354927
 O         4.729447         0.341902        -0.769370
 C         4.573500        -1.155586        -0.513616
 C         3.097574        -1.114903        -0.961891
 O         1.863051        -1.426105        -0.312926
 H        -0.365893        -0.298381         1.284143
 H        -0.633381         0.897423        -0.068194
 H        -0.519418        -0.896693        -0.318516
 H         2.252295         1.821418         0.811635
 H         2.616122         0.021401         1.574216
 H         1.698915         1.806842        -1.160399
 H         1.796164         0.842762        -2.434683
 H         5.268612        -1.842932        -0.994085
 H         4.550786        -1.311976         0.570671
 H         2.980936        -1.356055        -2.032045
