19
Iteration:  3055
 C        -0.171760         0.031652         0.115478
 C         1.315519        -0.066018        -0.161932
 C         2.481035         0.466352         0.741652
 C         3.244633         0.378627        -0.631311
 C         1.923723         0.856456        -1.328382
 O         4.854824         0.380609        -0.846660
 C         4.641331        -1.085726        -0.461290
 C         3.130382        -1.097786        -0.900934
 O         1.807483        -1.418482        -0.295518
 H        -0.172483         0.074337         1.263340
 H        -0.757538         0.940440        -0.169813
 H        -0.619929        -0.910459        -0.195414
 H         2.398814         1.613231         0.870832
 H         2.823764        -0.170686         1.599048
 H         1.666887         1.918523        -1.217134
 H         1.784111         0.300541        -2.274470
 H         5.251338        -1.850333        -0.979666
 H         4.755075        -1.216510         0.617010
 H         3.069114        -1.468346        -1.976338
