19
Iteration:  1773
 C        -0.120216         0.020133         0.203170
 C         1.367628        -0.008155        -0.085791
 C         2.548216         0.514042         0.740576
 C         3.239482         0.362541        -0.658906
 C         1.964376         0.899284        -1.323639
 O         4.675126         0.327138        -0.811518
 C         4.640712        -1.144867        -0.394320
 C         3.106161        -1.156155        -0.946782
 O         1.793232        -1.434198        -0.465074
 H        -0.331390        -0.839662         0.827440
 H        -0.257937         0.834183         0.833161
 H        -0.773782         0.099343        -0.705522
 H         2.371740         1.590204         0.933351
 H         2.953873         0.057486         1.650654
 H         1.831116         1.908990        -1.006238
 H         1.829975         0.727530        -2.366829
 H         5.360874        -1.582858        -1.069154
 H         4.789096        -1.329273         0.677875
 H         3.341461        -1.175898        -2.022546
