19
Iteration:  2241charge 0 multiplicity 1
 C        -0.044350        -0.025390         0.145364
 C         1.357200         0.034661        -0.156115
 C         2.542846         0.596017         0.727288
 C         3.306897         0.357781        -0.615449
 C         1.974194         0.834127        -1.303851
 O         4.703984         0.287647        -0.752153
 C         4.588309        -1.178572        -0.479105
 C         3.097485        -1.103523        -0.945452
 O         1.774056        -1.371636        -0.346804
 H        -0.286565        -1.122399         0.422240
 H        -0.520853         0.699574         0.703172
 H        -0.518098         0.173330        -0.805333
 H         2.451643         1.716500         0.726419
 H         2.715696         0.117423         1.733368
 H         1.507537         1.803069        -1.015221
 H         1.729384         0.586043        -2.351737
 H         5.278691        -1.852241        -1.094335
 H         4.810817        -1.170267         0.576387
 H         2.884854        -1.364177        -2.036455
