19
Iteration:  3352
 C        -0.095671        -0.012457         0.052025
 C         1.357103        -0.078291        -0.182853
 C         2.523073         0.744983         0.654258
 C         3.199300         0.273051        -0.718031
 C         1.931692         0.749439        -1.254768
 O         4.650062         0.376178        -0.875993
 C         4.679985        -1.080553        -0.383174
 C         3.132683        -1.185995        -0.875088
 O         1.862366        -1.426734        -0.158545
 H        -0.516432         0.422053        -0.786730
 H        -0.461448        -0.958871         0.300420
 H        -0.245155         0.739982         0.847065
 H         2.367017         1.821399         0.525942
 H         2.737247         0.394159         1.681443
 H         1.827254         1.830984        -1.262969
 H         1.535053         0.396129        -2.165987
 H         5.319547        -1.583960        -1.093466
 H         4.933357        -1.207456         0.693226
 H         3.135863        -1.547962        -1.945986
