19
Iteration:  1132charge 0 multiplicity 1
 C        -0.017928         0.080385         0.202470
 C         1.324582        -0.040533        -0.175110
 C         2.578509         0.424524         0.762522
 C         3.243546         0.347841        -0.606754
 C         2.046494         0.938624        -1.376794
 O         4.656165         0.381483        -0.717401
 C         4.591699        -1.105958        -0.457783
 C         3.049069        -1.157512        -0.971925
 O         1.757610        -1.438876        -0.452467
 H        -0.190017        -0.471018         1.208442
 H        -0.117578         1.145810         0.586539
 H        -0.747679        -0.369442        -0.521135
 H         2.551348         1.380702         1.272150
 H         2.804748        -0.311110         1.487831
 H         1.629140         1.946341        -1.213038
 H         2.072832         0.481556        -2.371481
 H         5.418453        -1.608673        -1.003195
 H         4.673118        -1.361678         0.604135
 H         3.057586        -1.337367        -2.113152
