19
Iteration:  1866charge 0 multiplicity 1
 C        -0.156916         0.019374         0.203823
 C         1.309787         0.079623        -0.085626
 C         2.552827         0.523986         0.713259
 C         3.264459         0.350508        -0.605722
 C         1.930572         0.853353        -1.382172
 O         4.721836         0.281591        -0.732409
 C         4.595138        -1.187251        -0.489804
 C         3.146122        -1.028121        -0.903347
 O         1.902194        -1.396932        -0.421380
 H        -0.300460        -0.383208         1.213423
 H        -0.881626         0.990323         0.135562
 H        -0.577754        -0.786730        -0.426604
 H         2.608073         1.499173         1.182419
 H         2.643345        -0.356049         1.384341
 H         1.591597         1.948355        -1.401049
 H         1.932444         0.480254        -2.404730
 H         5.052994        -1.640755        -1.342497
 H         4.696818        -1.599533         0.520639
 H         3.122263        -1.215687        -2.058876
