19
Iteration:  4484charge 0 multiplicity 1
 C        -0.166770         0.044713         0.090265
 C         1.378531        -0.006994        -0.082919
 C         2.541215         0.639454         0.756075
 C         3.264378         0.351905        -0.687458
 C         1.881642         0.835155        -1.352290
 O         4.682490         0.334494        -0.856383
 C         4.639154        -1.163381        -0.392000
 C         3.116281        -1.164688        -0.944533
 O         1.926172        -1.446914        -0.253566
 H        -0.593526        -0.549916        -0.759015
 H        -0.530370        -0.429125         1.012718
 H        -0.628767         0.968775        -0.110865
 H         2.389957         1.712422         0.898046
 H         2.958207         0.231345         1.736000
 H         1.496363         1.847160        -1.201391
 H         1.674633         0.502442        -2.384605
 H         5.360683        -1.787309        -0.974609
 H         4.666365        -1.217553         0.678290
 H         3.189809        -1.491074        -2.033875
