19
Iteration:  2395charge 0 multiplicity 1
 C        -0.145818        -0.017632         0.071268
 C         1.400898         0.025717        -0.179091
 C         2.527343         0.488157         0.695244
 C         3.259804         0.371638        -0.678599
 C         1.924096         0.868213        -1.299732
 O         4.788353         0.276168        -0.813219
 C         4.652219        -1.085754        -0.457848
 C         3.126885        -1.128019        -0.910962
 O         1.753585        -1.347007        -0.234498
 H        -0.467264        -0.800583         0.875798
 H        -0.312263         0.849742         0.704558
 H        -0.711123        -0.184311        -0.797508
 H         2.315475         1.521940         1.113458
 H         2.764530        -0.254053         1.518914
 H         1.700578         1.962379        -1.187129
 H         1.619843         0.557874        -2.289652
 H         5.255893        -1.876274        -0.984533
 H         4.795357        -1.108793         0.660291
 H         2.997180        -1.375816        -1.991370
