19
Iteration:  4728
 C        -0.006378         0.020935         0.324103
 C         1.391054        -0.054157        -0.173482
 C         2.497770         0.558428         0.609076
 C         3.223559         0.368005        -0.714588
 C         1.930034         0.899757        -1.422838
 O         4.627923         0.295749        -0.764215
 C         4.588414        -1.063054        -0.251383
 C         3.179434        -1.158538        -0.939490
 O         1.848451        -1.451618        -0.441076
 H        -0.522174        -0.811796        -0.128081
 H        -0.140282        -0.013677         1.410801
 H        -0.525872         1.014739         0.134915
 H         2.187978         1.675258         0.502724
 H         2.730866         0.119152         1.620012
 H         1.742300         1.979001        -1.412988
 H         1.751515         0.562805        -2.459201
 H         5.348056        -1.804143        -0.669064
 H         4.452396        -1.135937         0.876334
 H         3.277523        -1.528124        -2.028765
