19
Iteration:  1488
 C        -0.068117        -0.038612         0.406362
 C         1.337014        -0.010557        -0.204225
 C         2.467491         0.506560         0.645181
 C         3.298326         0.412127        -0.661787
 C         1.876253         0.920724        -1.399819
 O         4.857168         0.280420        -0.633305
 C         4.627959        -1.192682        -0.486836
 C         3.100098        -1.065824        -0.967436
 O         1.758404        -1.353734        -0.515407
 H        -0.236688        -0.197455         1.459696
 H        -0.785969         0.801288         0.324205
 H        -0.598961        -0.875339        -0.077328
 H         2.523275         1.612651         1.047768
 H         2.704235         0.000820         1.619928
 H         1.678859         1.955965        -1.247604
 H         1.807165         0.533411        -2.356296
 H         5.237180        -1.843871        -1.110224
 H         4.718482        -1.480498         0.553668
 H         3.009695        -1.287798        -2.074112
