19
Iteration:  4001
 C        -0.058818        -0.033032         0.055930
 C         1.388950        -0.052976        -0.116928
 C         2.515097         0.764359         0.729320
 C         3.191731         0.280796        -0.640020
 C         1.977103         0.812938        -1.335897
 O         4.616928         0.326730        -0.914006
 C         4.678650        -1.086597        -0.448392
 C         3.142917        -1.151582        -0.796740
 O         1.843335        -1.463138        -0.256976
 H        -0.584330         0.148624        -0.886472
 H        -0.542309        -0.961978         0.473881
 H        -0.484517         0.588193         0.884196
 H         2.314240         1.874818         0.757637
 H         2.785219         0.422440         1.759098
 H         1.656626         1.851359        -1.284269
 H         1.840566         0.391989        -2.321985
 H         5.198894        -1.773754        -1.042625
 H         5.019219        -1.050985         0.604940
 H         2.976169        -1.295883        -1.831485
