19
Iteration:  3340charge 0 multiplicity 1
 C        -0.143843         0.026933         0.052901
 C         1.381245         0.025107        -0.031002
 C         2.551621         0.657320         0.662248
 C         3.237213         0.310919        -0.678895
 C         1.848526         0.759082        -1.436219
 O         4.604845         0.363323        -0.863722
 C         4.701861        -1.080975        -0.403450
 C         3.162949        -1.215134        -0.814263
 O         1.894301        -1.441286        -0.227463
 H        -0.621229         0.408299        -0.784666
 H        -0.622499        -0.954180         0.238300
 H        -0.442187         0.595079         0.951440
 H         2.537492         1.761370         0.771636
 H         3.002758         0.214820         1.582351
 H         1.609633         1.809157        -1.313776
 H         1.718477         0.323692        -2.423641
 H         5.492872        -1.617588        -0.890090
 H         4.945962        -1.034093         0.703135
 H         3.085943        -1.635827        -1.845019
