19
Iteration:  2291charge 0 multiplicity 1
 C         0.022257         0.045707         0.258289
 C         1.356239        -0.076149        -0.248962
 C         2.500425         0.513440         0.699998
 C         3.257236         0.315619        -0.690216
 C         1.973119         0.923726        -1.252135
 O         4.710759         0.385868        -0.781396
 C         4.532102        -1.125923        -0.322699
 C         3.148133        -1.204673        -0.949055
 O         1.734316        -1.417650        -0.496754
 H         0.018020        -0.206309         1.256519
 H        -0.364078         1.104674         0.072519
 H        -0.772407        -0.610083        -0.257122
 H         2.391998         1.566368         0.961736
 H         2.884775        -0.051129         1.554650
 H         1.934336         1.983811        -1.122013
 H         1.759288         0.653790        -2.311693
 H         5.428413        -1.589989        -0.720441
 H         4.611080        -1.197856         0.775623
 H         3.078980        -1.425242        -1.967049
