19
Iteration:  4460charge 0 multiplicity 1
 C        -0.075714         0.031909         0.227668
 C         1.366435        -0.048514        -0.151637
 C         2.521209         0.627265         0.657679
 C         3.221058         0.299909        -0.702759
 C         1.960019         0.771594        -1.418914
 O         4.658238         0.362305        -0.839584
 C         4.684576        -1.053337        -0.334120
 C         3.121313        -1.168209        -0.776426
 O         1.774185        -1.436883        -0.390253
 H        -0.724408        -0.062097        -0.668765
 H        -0.265232        -0.849777         0.892462
 H        -0.473192         1.003028         0.597509
 H         2.642158         1.700732         0.860880
 H         3.042282         0.097623         1.472744
 H         1.888577         1.906761        -1.224331
 H         1.618201         0.500189        -2.452865
 H         5.335110        -1.712537        -0.960637
 H         4.761659        -1.064863         0.727270
 H         3.234251        -1.432340        -1.843186
