19
Iteration:  1676
 C        -0.065332        -0.004374         0.322427
 C         1.370183         0.023212        -0.240043
 C         2.555962         0.323756         0.698330
 C         3.231604         0.433458        -0.668655
 C         1.984909         1.035694        -1.358471
 O         4.668489         0.299003        -0.805056
 C         4.600396        -1.110408        -0.320341
 C         3.088176        -1.076523        -0.965050
 O         1.805968        -1.437247        -0.466522
 H        -0.068990        -0.159736         1.479890
 H        -0.427363         0.943160         0.071413
 H        -0.651640        -0.802662        -0.280650
 H         2.382370         1.272823         1.288362
 H         2.980148        -0.404069         1.416814
 H         1.810052         2.012944        -1.099533
 H         1.809160         0.672855        -2.322615
 H         5.334315        -1.756101        -0.792169
 H         4.535791        -1.198246         0.748782
 H         3.081567        -1.440272        -2.049907
