19
Iteration:  4320charge 0 multiplicity 1
 C        -0.159995         0.076542         0.104755
 C         1.308687        -0.040619        -0.040894
 C         2.580301         0.629327         0.664665
 C         3.270683         0.303812        -0.626848
 C         1.825736         0.719777        -1.373610
 O         4.701876         0.355068        -0.840408
 C         4.671740        -1.119192        -0.451981
 C         3.170225        -1.092971        -0.822569
 O         1.879890        -1.432288        -0.299376
 H        -0.648206        -0.820080        -0.320608
 H        -0.417013         0.032253         1.147163
 H        -0.602311         0.841728        -0.504436
 H         2.366002         1.717663         0.868591
 H         2.833654         0.224359         1.675951
 H         1.782220         1.835686        -1.409421
 H         1.557080         0.374588        -2.350750
 H         5.266897        -1.686692        -1.244776
 H         4.982174        -1.213638         0.601063
 H         3.135561        -1.368577        -1.919476
