19
Iteration:  2963charge 0 multiplicity 1
 C        -0.093812         0.010835         0.305699
 C         1.351136         0.027007        -0.171231
 C         2.568985         0.512365         0.647860
 C         3.234206         0.312234        -0.748164
 C         1.895522         0.826501        -1.416567
 O         4.711850         0.354175        -0.801146
 C         4.602151        -1.060576        -0.261155
 C         3.157901        -1.158704        -0.890257
 O         1.791490        -1.383722        -0.481963
 H        -0.222176        -0.801963         1.021264
 H        -0.367918         0.900226         0.952071
 H        -0.642694        -0.314520        -0.629306
 H         2.492077         1.499848         1.097412
 H         2.894096        -0.199602         1.435572
 H         1.664215         1.870527        -1.115876
 H         1.625591         0.422014        -2.433851
 H         5.471342        -1.674660        -0.570009
 H         4.678690        -0.921910         0.868929
 H         3.327215        -1.515807        -1.958797
