19
Iteration:  4655
 C        -0.091774         0.027943         0.041561
 C         1.338600         0.026708        -0.141977
 C         2.509770         0.608919         0.676576
 C         3.244899         0.383370        -0.656187
 C         1.957112         0.819966        -1.356636
 O         4.657724         0.323146        -0.813933
 C         4.586631        -1.117068        -0.504510
 C         3.070522        -1.147770        -0.894162
 O         1.973818        -1.485367        -0.130346
 H        -0.670347         0.214791        -0.900627
 H        -0.373433        -1.011041         0.373621
 H        -0.425379         0.719832         0.832425
 H         2.319772         1.669944         0.700832
 H         2.730003         0.187056         1.663837
 H         1.545239         1.847825        -1.260502
 H         1.766040         0.372929        -2.359201
 H         5.455694        -1.732246        -0.806986
 H         4.730609        -1.233154         0.623696
 H         3.002801        -1.243561        -1.985130
