19
Iteration:  2480
 C        -0.119395        -0.048951         0.327232
 C         1.350687         0.072216        -0.183025
 C         2.553006         0.653632         0.621240
 C         3.207089         0.381933        -0.715261
 C         1.925090         0.849252        -1.436778
 O         4.666301         0.263001        -0.720380
 C         4.573184        -1.168606        -0.303234
 C         3.154972        -1.116264        -0.965957
 O         1.879126        -1.405355        -0.426307
 H        -0.054410        -0.941565         1.098045
 H        -0.506957         0.904403         0.596684
 H        -0.686744        -0.354189        -0.587023
 H         2.633198         1.775209         0.842732
 H         2.899830        -0.013367         1.491984
 H         1.718299         1.883175        -1.062541
 H         1.777067         0.767940        -2.493700
 H         5.270117        -1.969307        -0.755749
 H         4.695711        -1.274457         0.765819
 H         3.357762        -1.552787        -1.940960
