19
Iteration:  4834charge 0 multiplicity 1
 C        -0.091056         0.095289         0.077306
 C         1.362621         0.032312        -0.177021
 C         2.506389         0.486407         0.752453
 C         3.208827         0.353443        -0.637441
 C         1.888079         0.750850        -1.353719
 O         4.664904         0.387063        -0.886529
 C         4.624658        -1.105299        -0.369108
 C         3.173310        -1.150820        -0.890856
 O         1.911931        -1.428098        -0.248040
 H        -0.518925        -0.019226        -0.906193
 H        -0.452525        -0.695464         0.725697
 H        -0.409103         1.173820         0.295350
 H         2.453980         1.564736         0.937104
 H         2.843596         0.110924         1.676647
 H         1.559776         1.830715        -1.350663
 H         1.749652         0.134366        -2.242319
 H         5.301923        -1.877293        -0.820237
 H         4.696379        -1.305664         0.680123
 H         3.044581        -1.381283        -1.916518
