19
Iteration:   970charge 0 multiplicity 1
 C        -0.110679        -0.055435         0.203548
 C         1.348448         0.000796        -0.188439
 C         2.569707         0.556717         0.692492
 C         3.192647         0.406650        -0.615789
 C         1.980957         0.976438        -1.325141
 O         4.672739         0.216208        -0.740821
 C         4.611420        -1.174542        -0.480405
 C         3.157980        -1.109323        -0.946592
 O         1.814354        -1.349742        -0.401904
 H        -0.373056        -1.085231         0.623540
 H        -0.305403         0.592878         1.142967
 H        -0.830559         0.081564        -0.519953
 H         2.483575         1.646801         1.069250
 H         3.034322        -0.193921         1.346758
 H         1.726152         1.841929        -0.817962
 H         1.892474         1.027854        -2.416268
 H         5.228226        -1.913530        -1.078312
 H         4.775073        -1.270515         0.576834
 H         3.137740        -1.381678        -1.980315
