19
Iteration:  1614
 C        -0.092215        -0.023202         0.244307
 C         1.322828         0.019401        -0.198979
 C         2.586347         0.536617         0.738522
 C         3.242727         0.437927        -0.668962
 C         1.938735         0.888330        -1.377891
 O         4.704453         0.296911        -0.667943
 C         4.556078        -1.196963        -0.515395
 C         3.104950        -1.072266        -0.908161
 O         1.889829        -1.412978        -0.407872
 H        -0.485127        -0.944773         0.756769
 H        -0.366056         0.715747         1.011648
 H        -0.740339         0.163290        -0.577338
 H         2.358158         1.527647         1.088278
 H         2.972137        -0.246932         1.343117
 H         1.609307         2.010264        -1.216917
 H         1.614763         0.681937        -2.493191
 H         5.222212        -1.737082        -1.285768
 H         4.771751        -1.568805         0.525851
 H         3.195029        -1.395887        -1.955398
