19
Iteration:  3406
 C        -0.048539        -0.054989         0.285074
 C         1.356740         0.012026        -0.179020
 C         2.501560         0.660880         0.587215
 C         3.236694         0.365418        -0.710634
 C         1.901381         0.751073        -1.415824
 O         4.742010         0.359688        -0.781932
 C         4.609913        -1.057678        -0.303199
 C         3.075580        -1.202558        -0.898334
 O         1.805247        -1.415451        -0.375396
 H        -0.543435        -0.695158        -0.390622
 H         0.012213        -0.490366         1.293492
 H        -0.469393         0.982937         0.349870
 H         2.502610         1.744659         0.681181
 H         2.777125         0.034899         1.452764
 H         1.659436         1.820051        -1.275513
 H         1.836933         0.469398        -2.440457
 H         5.498771        -1.552294        -0.683403
 H         4.780696        -1.068613         0.806048
 H         3.154545        -1.618989        -1.920128
