19
Iteration:  4134charge 0 multiplicity 1
 C        -0.060432        -0.059362         0.202844
 C         1.343610         0.014326        -0.153995
 C         2.540531         0.651370         0.587631
 C         3.205247         0.337876        -0.705942
 C         1.987638         0.835859        -1.355947
 O         4.605144         0.362428        -0.825193
 C         4.573233        -1.108306        -0.330420
 C         3.105608        -1.142337        -0.932864
 O         1.884364        -1.470484        -0.262064
 H        -0.475341        -0.938448        -0.475719
 H        -0.037013        -0.314707         1.309992
 H        -0.515939         0.921819        -0.142722
 H         2.574565         1.853388         0.638581
 H         2.947336         0.351428         1.605871
 H         1.832581         1.863491        -1.111667
 H         1.848802         0.563304        -2.418665
 H         5.392890        -1.599781        -0.878504
 H         4.491806        -1.365786         0.799288
 H         3.326460        -1.536513        -1.922356
