19
Iteration:  4566charge 0 multiplicity 1
 C        -0.043425         0.004775         0.329617
 C         1.381415         0.012015        -0.220974
 C         2.554975         0.522422         0.654690
 C         3.193793         0.426005        -0.768264
 C         1.830382         0.796373        -1.514485
 O         4.718811         0.322601        -0.748254
 C         4.590913        -1.098770        -0.277360
 C         3.219621        -1.064201        -0.875642
 O         1.804724        -1.457058        -0.396581
 H        -0.743531        -0.736068        -0.094220
 H        -0.012266        -0.034524         1.438508
 H        -0.401901         1.106081         0.154657
 H         2.462640         1.501301         1.200409
 H         2.886230        -0.326901         1.203915
 H         1.557900         1.883950        -1.426558
 H         1.706516         0.487767        -2.552936
 H         5.222403        -1.923353        -0.755427
 H         4.539000        -1.258126         0.925294
 H         3.244865        -1.307386        -1.969505
