19
Iteration:   747charge 0 multiplicity 1
 C        -0.131423         0.117180         0.181731
 C         1.350201        -0.054157        -0.126592
 C         2.529271         0.436372         0.744399
 C         3.232915         0.350741        -0.683682
 C         1.935776         0.919716        -1.304867
 O         4.652522         0.323589        -0.794014
 C         4.659346        -1.078512        -0.435572
 C         3.130254        -1.131798        -1.042850
 O         1.877574        -1.470975        -0.357995
 H        -0.472745        -0.659237         0.854992
 H        -0.297753         1.042179         0.747652
 H        -0.913972         0.276539        -0.649906
 H         2.720594         1.356514         1.353223
 H         2.801561        -0.362187         1.484733
 H         1.816184         1.975599        -1.052788
 H         1.740457         0.798825        -2.420219
 H         5.486728        -1.690942        -0.751472
 H         4.593336        -1.197171         0.694009
 H         3.137540        -1.476493        -2.081618
