19
Iteration:  1887
 C        -0.107893        -0.023243         0.102157
 C         1.377198        -0.014251        -0.121212
 C         2.524483         0.501727         0.769469
 C         3.272323         0.384235        -0.654816
 C         1.938661         0.930142        -1.225613
 O         4.725113         0.295438        -0.772379
 C         4.627264        -1.165473        -0.512600
 C         3.156121        -1.119467        -0.996423
 O         1.792525        -1.395111        -0.322883
 H        -0.444187        -0.036024         1.153022
 H        -0.441559         1.054766        -0.318434
 H        -0.755770        -0.727741        -0.395281
 H         2.334585         1.581232         0.897048
 H         3.026501        -0.065224         1.607454
 H         1.613844         1.989399        -1.113045
 H         1.715572         0.697808        -2.255259
 H         5.355758        -1.701611        -1.133084
 H         4.611920        -1.328224         0.582876
 H         2.818065        -1.373187        -2.085812
