19
Iteration:  3831charge 0 multiplicity 1
 C        -0.135740         0.045300         0.117922
 C         1.309076         0.009009        -0.147647
 C         2.413384         0.474186         0.728668
 C         3.224051         0.350917        -0.764225
 C         1.953294         0.839010        -1.445071
 O         4.689304         0.324669        -0.897685
 C         4.736479        -1.087632        -0.422334
 C         3.132821        -1.109386        -0.818363
 O         1.917048        -1.400387        -0.102510
 H        -0.758506        -0.665511        -0.462508
 H        -0.521307        -0.101489         1.080352
 H        -0.590749         0.967545        -0.182360
 H         2.367595         1.504052         1.041538
 H         2.732744        -0.144628         1.511793
 H         1.773899         1.853951        -1.188055
 H         1.836214         0.474432        -2.510134
 H         5.315813        -1.662824        -1.210561
 H         5.033702        -1.432486         0.604176
 H         3.081663        -1.412560        -1.919040
