19
Iteration:  2674charge 0 multiplicity 1
 C        -0.160705         0.175663         0.202480
 C         1.341855        -0.104164        -0.176120
 C         2.445915         0.644534         0.717181
 C         3.184338         0.278182        -0.688080
 C         1.930600         0.835313        -1.338528
 O         4.702754         0.348818        -0.830357
 C         4.703957        -1.093919        -0.348359
 C         3.168772        -1.124782        -0.899609
 O         1.905246        -1.533913        -0.388915
 H        -0.461524        -0.840414         0.685114
 H        -0.178822         0.862683         1.009214
 H        -0.864415         0.278428        -0.665742
 H         2.028325         1.627827         0.759165
 H         2.839064         0.356675         1.697819
 H         1.801489         2.004447        -1.268010
 H         1.667223         0.385669        -2.336130
 H         5.460721        -1.732397        -1.040965
 H         4.900688        -1.352749         0.725332
 H         3.274182        -1.539097        -1.944807
