19
Iteration:  1917charge 0 multiplicity 1
 C        -0.132266         0.008465         0.125565
 C         1.353508         0.090558        -0.143881
 C         2.545734         0.442106         0.818146
 C         3.286195         0.324621        -0.655556
 C         1.998640         0.967892        -1.305153
 O         4.616124         0.329952        -0.866309
 C         4.608123        -1.142977        -0.427848
 C         3.158960        -1.107659        -0.914601
 O         1.828542        -1.477166        -0.379077
 H        -0.391135         0.008053         1.249011
 H        -0.507297         0.977787        -0.028078
 H        -0.709985        -0.662855        -0.443506
 H         2.370044         1.459024         1.317510
 H         3.067560        -0.303429         1.495906
 H         1.814787         2.021250        -1.134605
 H         1.833365         0.712724        -2.380097
 H         5.347389        -1.756444        -1.053275
 H         4.638423        -1.275583         0.676133
 H         3.163609        -1.399237        -1.993671
