19
Iteration:  3515
 C        -0.067886        -0.092234         0.086145
 C         1.387354        -0.017159        -0.110954
 C         2.487640         0.628102         0.762914
 C         3.208715         0.398350        -0.693245
 C         1.893841         0.750678        -1.425201
 O         4.698188         0.288886        -0.827305
 C         4.620324        -1.107901        -0.481737
 C         3.120557        -1.099289        -0.965139
 O         1.908737        -1.324493        -0.107542
 H        -0.559818        -0.467462        -0.793447
 H        -0.527878        -0.456352         0.984288
 H        -0.407740         0.996979        -0.044658
 H         2.477115         1.611064         1.181063
 H         2.642659        -0.123941         1.553711
 H         1.454703         1.795452        -1.363018
 H         1.736940         0.306218        -2.373760
 H         5.352597        -1.678024        -1.077831
 H         4.895939        -1.132652         0.582786
 H         2.992740        -1.382348        -2.013620
