19
Iteration:   950
 C        -0.132268        -0.102882         0.151295
 C         1.313857         0.060707        -0.049001
 C         2.550922         0.548825         0.777203
 C         3.304555         0.363660        -0.642685
 C         1.998927         0.987346        -1.292348
 O         4.763636         0.301129        -0.791115
 C         4.566711        -1.247183        -0.506398
 C         3.091127        -1.083483        -0.953115
 O         1.782737        -1.377230        -0.409715
 H        -0.244955        -1.076128         0.722424
 H        -0.457562         0.699325         0.885060
 H        -0.572049        -0.134217        -0.800510
 H         2.398636         1.669466         0.792064
 H         2.752694         0.015264         1.746489
 H         1.748684         2.068478        -1.297045
 H         1.627631         0.585563        -2.296905
 H         5.285227        -1.749638        -1.139692
 H         4.887751        -1.486726         0.530340
 H         3.076557        -1.271398        -2.004471
