19
Iteration:  3438charge 0 multiplicity 1
 C        -0.078892         0.040414         0.379057
 C         1.317385        -0.079728        -0.132587
 C         2.525060         0.548690         0.577066
 C         3.178035         0.380079        -0.779614
 C         1.906618         0.805815        -1.479512
 O         4.697176         0.326730        -0.814669
 C         4.557198        -1.044419        -0.192703
 C         3.164252        -1.129744        -0.901382
 O         1.927753        -1.433579        -0.468981
 H        -0.687588        -0.805322         0.206121
 H        -0.171679         0.153580         1.471663
 H        -0.599739         0.948829        -0.063701
 H         2.489327         1.519121         1.036673
 H         2.943936        -0.131322         1.327520
 H         1.622502         1.871383        -1.287382
 H         1.804100         0.556685        -2.535427
 H         5.383639        -1.617774        -0.606163
 H         4.583145        -1.012096         0.936926
 H         3.367713        -1.604926        -1.859573
