19
Iteration:  1712charge 0 multiplicity 1
 C        -0.122486        -0.031350         0.169401
 C         1.345303         0.056500        -0.062642
 C         2.586671         0.575553         0.766113
 C         3.260852         0.350433        -0.586065
 C         1.927039         0.942797        -1.270700
 O         4.675715         0.264411        -0.729632
 C         4.616409        -1.202865        -0.521368
 C         3.116863        -1.090007        -0.972050
 O         1.848090        -1.443469        -0.483987
 H        -0.416769        -0.150137         1.299073
 H        -0.593459         0.952730        -0.133036
 H        -0.619909        -0.805246        -0.395755
 H         2.258888         1.616511         0.968519
 H         2.978498         0.053917         1.650530
 H         1.619476         2.033007        -1.373842
 H         1.677006         0.523737        -2.300850
 H         5.453639        -1.546210        -1.207733
 H         4.967185        -1.453555         0.489446
 H         3.097552        -1.153137        -2.105306
