19
Iteration:  2509charge 0 multiplicity 1
 C        -0.035974        -0.057178         0.174930
 C         1.349377        -0.037799        -0.155363
 C         2.525001         0.554087         0.739321
 C         3.222592         0.441020        -0.618489
 C         2.017049         0.817421        -1.402421
 O         4.723694         0.272046        -0.813441
 C         4.536509        -1.119862        -0.418861
 C         3.106428        -1.052432        -0.950786
 O         1.806004        -1.362883        -0.321889
 H        -0.248312        -0.259534         1.206699
 H        -0.578168         0.889106        -0.066701
 H        -0.528226        -0.912375        -0.397815
 H         2.356005         1.595594         0.926490
 H         2.921335         0.195283         1.656967
 H         1.760754         1.890426        -1.224574
 H         1.856184         0.601013        -2.498769
 H         5.148517        -1.951938        -0.820584
 H         4.700405        -1.146471         0.694896
 H         3.055260        -1.564885        -1.988918
