19
Iteration:  4278charge 0 multiplicity 1
 C         0.013190        -0.034224         0.339515
 C         1.409320         0.020498        -0.235520
 C         2.473113         0.628208         0.558741
 C         3.169642         0.339122        -0.742443
 C         1.976558         0.818284        -1.455116
 O         4.604413         0.316154        -0.794801
 C         4.548748        -1.093435        -0.299734
 C         3.171187        -1.139148        -0.849180
 O         1.870754        -1.434102        -0.329858
 H        -0.576153        -0.707902        -0.374188
 H         0.082429        -0.411320         1.388514
 H        -0.589526         0.858441         0.172613
 H         2.433434         1.742453         0.742461
 H         2.802657         0.315074         1.573188
 H         1.716553         1.856460        -1.146323
 H         1.818106         0.563937        -2.476307
 H         5.324821        -1.746558        -0.860935
 H         4.646904        -1.149399         0.793074
 H         3.164248        -1.483685        -1.873363
