19
Iteration:  2130
 C        -0.029136        -0.030779         0.285058
 C         1.338994         0.114754        -0.197193
 C         2.499020         0.449647         0.662733
 C         3.218404         0.391814        -0.697911
 C         1.898776         0.938241        -1.383719
 O         4.762359         0.263333        -0.744232
 C         4.513334        -1.190392        -0.310223
 C         3.113810        -1.064904        -1.020470
 O         1.881074        -1.369176        -0.408268
 H         0.063288        -0.272618         1.345218
 H        -0.538863         0.892829         0.191438
 H        -0.503052        -0.911596        -0.271961
 H         2.274328         1.446334         1.164813
 H         2.645007        -0.359300         1.452510
 H         1.725564         1.941005        -1.199400
 H         1.702510         0.641908        -2.435750
 H         5.302470        -1.726570        -0.822595
 H         4.605459        -1.391379         0.777537
 H         3.360972        -1.438385        -2.083420
