19
Iteration:  3696
 C        -0.215128         0.055782         0.091519
 C         1.359715        -0.087535        -0.100144
 C         2.482521         0.553516         0.705618
 C         3.227358         0.395961        -0.709297
 C         1.846269         0.813011        -1.359159
 O         4.757890         0.290918        -0.914326
 C         4.700658        -1.113893        -0.375971
 C         3.172086        -1.081597        -0.889619
 O         1.891245        -1.424650        -0.198582
 H        -0.702146        -0.619304        -0.520877
 H        -0.429300        -0.054109         1.181002
 H        -0.443523         1.101078        -0.175938
 H         2.338043         1.631844         0.919606
 H         3.003228        -0.023546         1.486349
 H         1.521659         1.870840        -1.110654
 H         1.652736         0.667741        -2.416857
 H         5.174649        -1.906683        -0.950796
 H         5.107580        -1.001188         0.694066
 H         3.082635        -1.530246        -1.909972
