19
Iteration:  2703
 C        -0.089322         0.070025         0.069040
 C         1.386999        -0.020040        -0.129473
 C         2.537484         0.476022         0.747771
 C         3.210663         0.320812        -0.718405
 C         1.966178         0.774875        -1.379853
 O         4.715472         0.417213        -0.819341
 C         4.665738        -1.045452        -0.423165
 C         3.043105        -1.124298        -0.871261
 O         1.822742        -1.414257        -0.256772
 H        -0.381941        -0.644183         0.821288
 H        -0.446229         1.040083         0.458520
 H        -0.697432        -0.241064        -0.842257
 H         2.287568         1.361289         1.369146
 H         2.807380        -0.370606         1.448196
 H         1.868233         1.840390        -1.304771
 H         1.639264         0.218691        -2.251278
 H         5.334026        -1.558301        -1.066894
 H         4.800725        -1.153746         0.648750
 H         3.098653        -1.533216        -1.855049
