19
Iteration:  3465
 C        -0.031619         0.030127         0.243141
 C         1.361403        -0.029803        -0.149532
 C         2.473209         0.540600         0.693397
 C         3.210996         0.362972        -0.656374
 C         1.935651         0.775509        -1.491476
 O         4.681693         0.363335        -0.804134
 C         4.659934        -1.074541        -0.401668
 C         3.204307        -1.152372        -0.869017
 O         1.758332        -1.391217        -0.352825
 H        -0.536316        -1.006729         0.137976
 H         0.090932         0.116252         1.339398
 H        -0.817439         0.667318        -0.075743
 H         2.262612         1.609927         0.977858
 H         2.853506        -0.033785         1.569782
 H         1.726431         1.826153        -1.463987
 H         1.786818         0.297352        -2.497659
 H         5.623490        -1.451506        -0.911680
 H         4.580832        -1.035406         0.687276
 H         3.189319        -1.547236        -1.933879
