19
Iteration:  3203
 C        -0.128382         0.023182         0.084588
 C         1.397480        -0.026859        -0.123209
 C         2.514912         0.568089         0.752945
 C         3.243344         0.290865        -0.678870
 C         1.909119         0.816492        -1.419623
 O         4.669457         0.365283        -0.882192
 C         4.707060        -0.999968        -0.436117
 C         3.113139        -1.199768        -0.796519
 O         1.823731        -1.424737        -0.242218
 H        -0.469506        -0.934544        -0.475250
 H        -0.411301        -0.033755         1.087465
 H        -0.549990         0.950214        -0.392290
 H         2.482017         1.578628         0.993130
 H         2.758573         0.073453         1.705899
 H         1.773288         1.946005        -1.343544
 H         1.608321         0.294012        -2.295783
 H         5.538000        -1.555037        -0.977026
 H         4.782208        -1.062110         0.635727
 H         3.086408        -1.546257        -1.801095
