19
Iteration:  2589
 C        -0.100363         0.040478         0.259814
 C         1.342109        -0.034133        -0.178137
 C         2.472160         0.570582         0.690999
 C         3.264710         0.454773        -0.667250
 C         1.928936         0.808623        -1.450927
 O         4.733879         0.269375        -0.828885
 C         4.596596        -1.115842        -0.338697
 C         3.156406        -1.059796        -0.852561
 O         1.885739        -1.442145        -0.380441
 H        -0.281520        -0.315392         1.344726
 H        -0.570757         1.018325         0.139407
 H        -0.678175        -0.613444        -0.411244
 H         2.412054         1.591755         1.090786
 H         2.594316        -0.274599         1.372900
 H         1.559937         1.845052        -1.294444
 H         1.736262         0.428206        -2.441317
 H         5.278774        -1.720924        -1.002057
 H         4.555427        -1.343037         0.700573
 H         3.130162        -1.402280        -1.968018
