19
Iteration:  4263charge 0 multiplicity 1
 C        -0.052699        -0.078422         0.359698
 C         1.348577        -0.035940        -0.167113
 C         2.500246         0.769255         0.608503
 C         3.297681         0.347813        -0.744172
 C         1.961864         0.808908        -1.440732
 O         4.710882         0.318464        -0.832464
 C         4.596848        -1.064465        -0.219896
 C         3.078638        -1.191289        -0.916086
 O         1.790778        -1.429627        -0.441110
 H        -0.736200        -0.642465        -0.212436
 H         0.004124        -0.630436         1.274070
 H        -0.256325         0.899338         0.746611
 H         2.152326         1.804737         0.571903
 H         2.750043         0.288192         1.536617
 H         1.691880         1.860710        -1.476382
 H         1.764490         0.329120        -2.424274
 H         5.332063        -1.728867        -0.628001
 H         4.736410        -0.992962         0.889417
 H         3.328791        -1.654846        -1.928489
