19
Iteration:  3910charge 0 multiplicity 1
 C        -0.081926        -0.049759         0.383818
 C         1.360647        -0.003126        -0.264749
 C         2.468848         0.571353         0.569928
 C         3.237356         0.383743        -0.741897
 C         1.953966         0.857019        -1.473845
 O         4.678601         0.296979        -0.794640
 C         4.574040        -1.079061        -0.248314
 C         3.158436        -1.135193        -0.906374
 O         1.882107        -1.367650        -0.359503
 H        -0.596480        -0.904964        -0.116478
 H         0.199881        -0.409732         1.410010
 H        -0.616185         0.885867         0.538827
 H         2.338881         1.574294         0.917558
 H         2.689530        -0.180041         1.335533
 H         1.630393         1.921957        -1.599542
 H         1.799584         0.532851        -2.503313
 H         5.324801        -1.925751        -0.476921
 H         4.399476        -1.031024         0.851907
 H         3.372857        -1.443988        -1.978273
