19
Iteration:  4309charge 0 multiplicity 1
 C        -0.247557         0.052527         0.199636
 C         1.357348         0.004095        -0.134390
 C         2.518594         0.546791         0.675593
 C         3.223591         0.426386        -0.784338
 C         1.919682         0.692018        -1.378602
 O         4.786626         0.334693        -0.793586
 C         4.631433        -1.074428        -0.448191
 C         3.181923        -1.104837        -0.853136
 O         1.855345        -1.401781        -0.235548
 H        -0.461023        -0.900620        -0.292197
 H        -0.671976         0.071962         1.186122
 H        -0.675429         0.920198        -0.275406
 H         2.536119         1.659163         0.863525
 H         2.999228        -0.148593         1.382288
 H         1.416428         1.680792        -1.263887
 H         1.778141         0.244055        -2.329542
 H         5.346348        -1.728187        -1.067044
 H         4.838084        -1.329560         0.611929
 H         3.175900        -1.477723        -1.920369
