19
Iteration:  3292charge 0 multiplicity 1
 C         0.008257         0.034385         0.354090
 C         1.378739        -0.043859        -0.208178
 C         2.448517         0.712018         0.570668
 C         3.183577         0.323264        -0.761322
 C         1.933139         0.799299        -1.461744
 O         4.632567         0.287236        -0.824256
 C         4.594975        -1.026203        -0.206904
 C         3.201089        -1.163354        -0.888575
 O         1.870610        -1.481808        -0.365553
 H        -0.800793         0.228178        -0.458836
 H        -0.348422        -1.043549         0.463690
 H        -0.214728         0.496219         1.321961
 H         2.251106         1.846530         0.579236
 H         2.688783         0.385165         1.616103
 H         1.812166         1.901391        -1.309614
 H         1.738428         0.331224        -2.469151
 H         5.419658        -1.634904        -0.713736
 H         4.764995        -1.084672         0.876415
 H         3.228128        -1.518680        -1.907574
