19
Iteration:  1733charge 0 multiplicity 1
 C        -0.092410        -0.031647         0.140988
 C         1.348885        -0.001219        -0.175880
 C         2.521307         0.476761         0.789171
 C         3.245249         0.405874        -0.630192
 C         1.977240         0.842833        -1.332025
 O         4.760694         0.308724        -0.699351
 C         4.554460        -1.188524        -0.587626
 C         3.124169        -0.986011        -0.961908
 O         1.820835        -1.367527        -0.304642
 H        -0.352384        -0.405337         1.239474
 H        -0.531609         1.005601         0.091988
 H        -0.545443        -0.666209        -0.636881
 H         2.495967         1.527014         1.199102
 H         2.877912        -0.277294         1.520352
 H         1.563667         1.865498        -1.192230
 H         1.808744         0.641955        -2.413498
 H         5.192178        -1.735867        -1.370468
 H         4.860834        -1.513107         0.403579
 H         2.752637        -1.290504        -1.939416
