19
Iteration:  3380charge 0 multiplicity 1
 C        -0.150393        -0.086789         0.187198
 C         1.296238        -0.013929        -0.155957
 C         2.493951         0.611547         0.681396
 C         3.172565         0.447611        -0.675395
 C         1.965801         0.844348        -1.524363
 O         4.692068         0.310566        -0.867693
 C         4.658581        -1.168023        -0.342114
 C         3.100931        -1.058051        -0.863229
 O         1.930989        -1.403825        -0.164690
 H        -0.748927         0.005645        -0.780716
 H        -0.388935        -0.982719         0.909810
 H        -0.254292         0.872511         0.692693
 H         2.454181         1.696402         0.924534
 H         2.822296        -0.165557         1.355240
 H         1.830939         1.851348        -1.919453
 H         1.908025         0.068103        -2.388932
 H         5.342494        -1.708837        -1.017228
 H         5.038907        -1.293690         0.701582
 H         3.141470        -1.343373        -1.899506
