19
Iteration:  1490
 C        -0.075931        -0.024092         0.411826
 C         1.335128        -0.034877        -0.218916
 C         2.453165         0.508952         0.659801
 C         3.300807         0.430907        -0.678177
 C         1.882992         0.926175        -1.389209
 O         4.861505         0.271440        -0.631505
 C         4.633902        -1.185757        -0.484900
 C         3.083007        -1.065375        -0.961517
 O         1.755021        -1.364169        -0.520194
 H        -0.218345        -0.178564         1.495246
 H        -0.665594         0.751713         0.338170
 H        -0.579969        -0.904299        -0.115706
 H         2.593469         1.595953         0.947260
 H         2.714230         0.020478         1.613200
 H         1.709472         1.969626        -1.219734
 H         1.761997         0.551494        -2.396698
 H         5.277331        -1.773308        -1.108130
 H         4.737683        -1.492700         0.559889
 H         3.021137        -1.301332        -2.015353
