19
Iteration:  2307
 C        -0.085408         0.098415         0.319993
 C         1.400391        -0.003772        -0.143119
 C         2.578823         0.474771         0.714024
 C         3.240836         0.301776        -0.680541
 C         2.011462         0.819985        -1.399363
 O         4.655704         0.366367        -0.683126
 C         4.621852        -1.086814        -0.332180
 C         3.123630        -1.136823        -1.034311
 O         1.743100        -1.432899        -0.550666
 H        -0.068883         0.082657         1.496127
 H        -0.583018         0.972641        -0.018075
 H        -0.664284        -0.712072        -0.042642
 H         2.400349         1.589524         0.760577
 H         2.826082        -0.043087         1.704391
 H         1.656519         1.840843        -1.104291
 H         1.787200         0.623714        -2.449053
 H         5.301251        -1.834160        -0.855319
 H         4.476249        -1.124598         0.743106
 H         3.357094        -1.518948        -2.091875
