19
Iteration:  2859
 C        -0.119238        -0.068833         0.062083
 C         1.370862        -0.017506        -0.121102
 C         2.539946         0.548282         0.741309
 C         3.241758         0.396661        -0.663489
 C         1.913326         0.946414        -1.374470
 O         4.737992         0.299944        -0.826388
 C         4.581934        -1.100416        -0.471810
 C         3.118898        -1.147025        -0.900744
 O         1.848122        -1.397263        -0.205043
 H        -0.316985        -0.886244         0.849849
 H        -0.535985         0.862718         0.498907
 H        -0.629569        -0.365428        -0.859015
 H         2.542181         1.616644         0.892727
 H         2.883083        -0.159543         1.531899
 H         1.566667         2.001919        -1.146887
 H         1.835248         0.830451        -2.467500
 H         5.360074        -1.699735        -1.043776
 H         4.647714        -1.303280         0.590425
 H         3.071613        -1.605185        -1.857617
