19
Iteration:  4561
 C        -0.032507         0.039449         0.300013
 C         1.356277        -0.003486        -0.203017
 C         2.537732         0.554085         0.683427
 C         3.201275         0.396658        -0.749701
 C         1.837800         0.810105        -1.517934
 O         4.726062         0.314221        -0.737343
 C         4.632823        -1.113572        -0.323528
 C         3.184835        -1.082442        -0.876336
 O         1.799860        -1.426154        -0.408221
 H        -0.619332        -0.832824        -0.006768
 H        -0.032533        -0.072142         1.383061
 H        -0.586020         0.928626         0.175948
 H         2.483992         1.540451         1.120712
 H         2.836764        -0.271602         1.391341
 H         1.426552         1.793264        -1.363428
 H         1.654771         0.445752        -2.543476
 H         5.409578        -1.791958        -0.615513
 H         4.635074        -1.274446         0.679162
 H         3.327606        -1.455858        -1.910676
