19
Iteration:  2330charge 0 multiplicity 1
 C        -0.102577         0.033382         0.318797
 C         1.297410         0.023059        -0.262321
 C         2.506894         0.457793         0.668314
 C         3.236669         0.425808        -0.680751
 C         1.884232         0.910752        -1.409329
 O         4.743678         0.262515        -0.691302
 C         4.619801        -1.202020        -0.381126
 C         3.171109        -1.029202        -0.935763
 O         1.863870        -1.401317        -0.427889
 H        -0.073080         0.185891         1.456906
 H        -0.555349         0.919458        -0.141597
 H        -0.673102        -0.794101         0.010699
 H         2.340465         1.391302         1.222642
 H         2.896067        -0.363066         1.308551
 H         1.805654         2.046516        -1.393887
 H         1.499831         0.523195        -2.349173
 H         5.150003        -1.940743        -1.017741
 H         4.717082        -1.285884         0.705070
 H         3.380776        -1.470509        -1.968089
