19
Iteration:  4349
 C        -0.071466         0.014725         0.142037
 C         1.373095        -0.071320        -0.097952
 C         2.442908         0.624315         0.697787
 C         3.244571         0.315402        -0.671884
 C         2.017825         0.849983        -1.429940
 O         4.646784         0.319788        -0.899023
 C         4.615400        -1.049961        -0.453962
 C         3.138908        -1.148989        -0.844419
 O         1.844983        -1.439045        -0.200832
 H        -0.422570        -0.874665        -0.415274
 H        -0.267600        -0.216562         1.226800
 H        -0.669463         0.949445        -0.154064
 H         2.242255         1.712983         0.886046
 H         2.602007         0.118563         1.643869
 H         1.875650         1.924239        -1.113547
 H         2.016007         0.672855        -2.566662
 H         5.329039        -1.635126        -0.989972
 H         4.840088        -1.198382         0.612058
 H         3.020716        -1.533709        -1.886947
