19
Iteration:   732
 C        -0.071883         0.032646         0.231104
 C         1.379522        -0.056616        -0.162175
 C         2.632438         0.376516         0.704197
 C         3.185761         0.384911        -0.673085
 C         1.984013         0.949653        -1.344787
 O         4.703653         0.343448        -0.778694
 C         4.572113        -1.121477        -0.381500
 C         3.123232        -1.080529        -0.939279
 O         1.741916        -1.407845        -0.413616
 H        -0.316068        -0.772744         1.043746
 H        -0.221187         1.122947         0.601453
 H        -0.623478        -0.244504        -0.642472
 H         2.396895         1.370975         1.030687
 H         3.045066        -0.173859         1.549712
 H         1.548871         1.943502        -1.225831
 H         1.816406         0.521418        -2.352076
 H         5.265269        -1.559332        -1.098604
 H         4.750427        -1.254767         0.740726
 H         3.113475        -1.320305        -2.043367
