19
Iteration:  1355charge 0 multiplicity 1
 C        -0.059704        -0.048992         0.300702
 C         1.356391         0.087088        -0.190789
 C         2.455975         0.557773         0.727398
 C         3.224936         0.359484        -0.692221
 C         1.882701         0.914500        -1.372959
 O         4.750178         0.269733        -0.691033
 C         4.547271        -1.246660        -0.400408
 C         3.171149        -1.091613        -1.070904
 O         1.890570        -1.377933        -0.405975
 H        -0.107713        -0.913058         0.949214
 H        -0.399473         0.869735         1.010183
 H        -0.871803        -0.082782        -0.571948
 H         2.480117         1.714339         0.759884
 H         2.905438        -0.085650         1.574345
 H         1.616092         1.953948        -1.263151
 H         1.727448         0.806466        -2.407932
 H         5.395934        -1.783631        -0.856328
 H         4.646981        -1.318798         0.679954
 H         2.983248        -1.385761        -2.190377
