19
Iteration:  1602charge 0 multiplicity 1
 C        -0.109999        -0.017870         0.194757
 C         1.378828        -0.051652        -0.171047
 C         2.537039         0.471574         0.702312
 C         3.263105         0.407991        -0.623249
 C         1.980634         0.919477        -1.371293
 O         4.702548         0.322139        -0.716467
 C         4.546411        -1.198196        -0.513387
 C         3.086350        -1.013523        -0.976280
 O         1.832320        -1.372737        -0.290389
 H        -0.179228        -1.141418         0.450828
 H        -0.225805         0.637633         0.964321
 H        -0.808246         0.200368        -0.630777
 H         2.570960         1.416156         1.222587
 H         2.827151        -0.199383         1.497643
 H         1.716092         2.026100        -1.362845
 H         1.942579         0.353195        -2.375513
 H         5.150714        -1.778168        -1.276135
 H         4.907932        -1.360368         0.514114
 H         2.919668        -1.129451        -2.048264
