19
Iteration:  2831
 C        -0.136855         0.006611         0.198464
 C         1.338418         0.009932        -0.114943
 C         2.492502         0.501863         0.777745
 C         3.295790         0.383406        -0.581863
 C         1.888682         0.811583        -1.337709
 O         4.685099         0.323955        -0.915079
 C         4.612799        -1.117026        -0.370935
 C         3.157670        -1.107455        -0.884089
 O         1.889700        -1.396491        -0.453293
 H        -0.349745        -0.133570         1.215194
 H        -0.483103         1.026841        -0.150402
 H        -0.774195        -0.593337        -0.438559
 H         2.497136         1.581776         1.013189
 H         2.786002        -0.200681         1.535763
 H         1.586230         1.834182        -1.361729
 H         1.856509         0.478062        -2.380613
 H         5.383550        -1.695247        -0.819972
 H         4.733382        -1.184810         0.748393
 H         3.349764        -1.396104        -1.967777
