19
Iteration:  1784
 C        -0.086769         0.033734         0.258274
 C         1.376995        -0.052550        -0.167444
 C         2.579014         0.478640         0.719807
 C         3.268354         0.342948        -0.632332
 C         1.932984         0.906744        -1.279891
 O         4.705683         0.309708        -0.809797
 C         4.624259        -1.079004        -0.376716
 C         3.128444        -1.094578        -0.943647
 O         1.775923        -1.380045        -0.505991
 H        -0.430563        -0.936376         0.658659
 H        -0.330319         0.829754         0.861167
 H        -0.758684         0.122709        -0.644596
 H         2.405330         1.534791         1.013007
 H         2.838896        -0.182138         1.563879
 H         1.641743         1.911553        -1.408918
 H         1.642784         0.365832        -2.153944
 H         5.252310        -1.855573        -0.801958
 H         4.765663        -1.132066         0.710002
 H         2.960988        -1.536567        -1.944177
