19
Iteration:  3750charge 0 multiplicity 1
 C        -0.006949        -0.055573         0.432850
 C         1.349347         0.036215        -0.226678
 C         2.439706         0.644576         0.517195
 C         3.254715         0.351577        -0.792085
 C         1.942293         0.845391        -1.545720
 O         4.699381         0.332444        -0.738766
 C         4.551694        -1.080186        -0.288427
 C         3.193474        -1.197785        -0.858303
 O         1.820742        -1.481329        -0.358905
 H        -0.866402         0.054858        -0.188389
 H        -0.080076        -0.932562         1.158763
 H        -0.134283         0.960989         0.943423
 H         2.328364         1.741850         0.689724
 H         2.890809         0.244735         1.461036
 H         1.666471         1.924236        -1.391055
 H         1.686243         0.681267        -2.575409
 H         5.260714        -1.831364        -0.623678
 H         4.533567        -0.941208         0.841086
 H         3.271050        -1.632744        -1.882472
