19
Iteration:  3023
 C        -0.105194        -0.038470         0.065301
 C         1.374335         0.024155        -0.071757
 C         2.559937         0.608496         0.728561
 C         3.160572         0.324865        -0.629002
 C         1.982377         0.924692        -1.357208
 O         4.619715         0.318606        -0.689914
 C         4.633082        -1.162924        -0.561457
 C         3.112276        -1.133243        -0.919047
 O         1.906697        -1.427756        -0.274012
 H        -0.402944        -0.113131         1.167823
 H        -0.774144         0.720593        -0.436626
 H        -0.443116        -1.034433        -0.224735
 H         2.457118         1.759360         0.670456
 H         3.007345         0.130355         1.647946
 H         1.790355         1.960827        -1.505218
 H         1.606529         0.550956        -2.355278
 H         5.300115        -1.610222        -1.309106
 H         4.985466        -1.361885         0.454663
 H         3.012034        -1.403088        -1.997186
