19
Iteration:  4792charge 0 multiplicity 1
 C        -0.127481        -0.072062         0.185501
 C         1.350523         0.015113        -0.200485
 C         2.554577         0.619968         0.661705
 C         3.277969         0.276927        -0.618606
 C         1.966704         0.886510        -1.406308
 O         4.688373         0.390045        -0.811558
 C         4.577696        -1.135858        -0.415381
 C         3.160090        -1.161352        -0.845654
 O         1.776683        -1.422335        -0.309614
 H        -0.582410        -0.942282        -0.228490
 H        -0.085010        -0.139011         1.284754
 H        -0.723206         0.846093        -0.206022
 H         2.480386         1.819639         0.699658
 H         2.628545         0.139316         1.673878
 H         1.916664         1.999136        -1.273215
 H         1.850685         0.450123        -2.411328
 H         5.435466        -1.666852        -0.901283
 H         4.882422        -1.258480         0.622011
 H         3.200439        -1.458398        -1.906943
