19
Iteration:  4105charge 0 multiplicity 1
 C        -0.073600        -0.017300         0.382521
 C         1.296903         0.003657        -0.181087
 C         2.498121         0.506274         0.644502
 C         3.175922         0.436509        -0.747456
 C         1.840525         0.795959        -1.522352
 O         4.808836         0.290075        -0.815716
 C         4.609093        -1.060507        -0.216349
 C         3.222132        -1.056524        -0.878748
 O         1.825206        -1.387102        -0.422193
 H        -0.747028        -0.884591         0.178728
 H        -0.115705        -0.084766         1.501456
 H        -0.639986         0.785455        -0.113924
 H         2.460027         1.549685         0.839973
 H         2.917949        -0.290783         1.284649
 H         1.587048         1.946924        -1.613979
 H         1.769946         0.293591        -2.513802
 H         5.326847        -1.783648        -0.762606
 H         4.592608        -1.262712         0.806047
 H         3.445655        -1.583147        -1.833531
