19
Iteration:   830charge 0 multiplicity 1
 C        -0.107191        -0.059386         0.282416
 C         1.384195         0.076037        -0.143670
 C         2.502873         0.589045         0.699237
 C         3.207755         0.358860        -0.646346
 C         1.896451         1.043152        -1.336919
 O         4.691759         0.213794        -0.719811
 C         4.541846        -1.194980        -0.407102
 C         3.175977        -1.109114        -1.072632
 O         1.912935        -1.449264        -0.443235
 H        -0.197086        -0.690674         1.224589
 H        -0.510934         0.954838         0.514179
 H        -0.512330        -0.589903        -0.457294
 H         2.423378         1.671369         0.874828
 H         2.753624        -0.022632         1.541653
 H         1.981208         2.008270        -0.932998
 H         1.700304         0.892769        -2.408279
 H         5.313619        -1.654956        -0.999451
 H         4.494149        -1.491995         0.635101
 H         3.226308        -1.332030        -2.143984
