19
Iteration:  2526charge 0 multiplicity 1
 C        -0.235305         0.012019         0.163368
 C         1.365788         0.031814        -0.175730
 C         2.520565         0.558608         0.690520
 C         3.280992         0.371725        -0.675001
 C         1.925385         0.921008        -1.353700
 O         4.692429         0.293909        -0.851340
 C         4.655741        -1.176046        -0.401977
 C         3.130623        -1.109352        -0.829803
 O         1.906612        -1.441688        -0.315040
 H        -0.297714        -0.031179         1.264050
 H        -0.636664         0.932806        -0.322041
 H        -0.701687        -0.822071        -0.264799
 H         2.491945         1.579745         1.205303
 H         2.679749        -0.302600         1.415719
 H         1.608016         1.956085        -1.341159
 H         1.714493         0.490487        -2.350685
 H         5.406663        -1.643708        -1.000693
 H         4.806503        -1.530182         0.651565
 H         3.191615        -1.158121        -1.864712
