19
Iteration:  4280charge 0 multiplicity 1
 C         0.008351        -0.030000         0.326671
 C         1.399776         0.013842        -0.242203
 C         2.478731         0.617993         0.579994
 C         3.175856         0.339364        -0.743079
 C         1.957044         0.827896        -1.467932
 O         4.605445         0.316669        -0.791683
 C         4.552578        -1.097986        -0.313734
 C         3.168521        -1.138202        -0.841576
 O         1.875821        -1.429031        -0.312881
 H        -0.527968        -0.774573        -0.352572
 H         0.039268        -0.378800         1.403147
 H        -0.568995         0.903590         0.183077
 H         2.463697         1.698026         0.692919
 H         2.834632         0.241742         1.561189
 H         1.750787         1.869896        -1.190254
 H         1.816037         0.568972        -2.533156
 H         5.337154        -1.700940        -0.824194
 H         4.631932        -1.182720         0.767865
 H         3.199180        -1.420136        -1.872295
