19
Iteration:  2984charge 0 multiplicity 1
 C        -0.113445        -0.061042         0.228736
 C         1.315286         0.004644        -0.215903
 C         2.476516         0.498501         0.704007
 C         3.201394         0.442672        -0.685749
 C         1.902354         0.918171        -1.407848
 O         4.738704         0.236140        -0.827772
 C         4.632401        -1.133205        -0.345556
 C         3.171301        -1.007978        -0.869528
 O         1.880127        -1.409321        -0.342522
 H        -0.191649        -0.322756         1.255376
 H        -0.336264         1.040389         0.408126
 H        -0.746327        -0.729874        -0.386437
 H         2.265806         1.526325         0.959933
 H         2.886946        -0.119578         1.504178
 H         1.537270         1.985072        -1.505028
 H         1.846026         0.361736        -2.433387
 H         5.220130        -1.789664        -1.012705
 H         4.848249        -1.478263         0.730785
 H         3.309475        -1.218394        -1.952762
