19
Iteration:  1422
 C        -0.186220         0.079717         0.140924
 C         1.336075         0.017077        -0.123348
 C         2.570979         0.434444         0.754480
 C         3.207677         0.308906        -0.641917
 C         1.917885         0.938676        -1.261990
 O         4.681566         0.281377        -0.896091
 C         4.680284        -1.100473        -0.444346
 C         3.146597        -1.111750        -0.893081
 O         1.862915        -1.417866        -0.390551
 H        -0.420876        -0.660614         0.879486
 H        -0.324428         0.936842         0.782533
 H        -0.633942        -0.078210        -0.859026
 H         2.512365         1.490337         1.216226
 H         2.668296        -0.331171         1.578447
 H         1.638004         1.937875        -0.954765
 H         1.802771         0.803023        -2.295403
 H         5.257069        -1.856869        -0.999146
 H         4.934953        -1.110609         0.604203
 H         3.343351        -1.324013        -1.998108
