19
Iteration:  1533charge 0 multiplicity 1
 C        -0.044024         0.036365         0.223812
 C         1.365239         0.050536        -0.096433
 C         2.568417         0.364775         0.760202
 C         3.234208         0.336265        -0.691427
 C         2.006991         0.871262        -1.322983
 O         4.693935         0.358733        -0.793616
 C         4.512707        -1.085550        -0.385817
 C         3.114936        -1.054039        -1.059146
 O         1.805921        -1.434584        -0.432911
 H        -0.166212        -0.551265         1.165893
 H        -0.273658         1.075474         0.448425
 H        -0.820719        -0.310379        -0.522969
 H         2.531030         1.368010         1.259944
 H         2.814721        -0.289689         1.621546
 H         1.656565         1.850380        -1.173654
 H         1.790124         0.472470        -2.264109
 H         5.278833        -1.632501        -0.877858
 H         4.525135        -1.249967         0.686910
 H         3.134884        -1.328630        -2.122336
