19
Iteration:  3291charge 0 multiplicity 1
 C         0.009138         0.029092         0.352574
 C         1.376812        -0.042161        -0.195599
 C         2.446213         0.723422         0.563775
 C         3.186470         0.324195        -0.761949
 C         1.932302         0.798232        -1.459319
 O         4.630379         0.282463        -0.818300
 C         4.590210        -1.019894        -0.199445
 C         3.197695        -1.160926        -0.895656
 O         1.870818        -1.490613        -0.369680
 H        -0.811256         0.231358        -0.451264
 H        -0.321653        -1.021290         0.472947
 H        -0.211318         0.500088         1.335297
 H         2.265610         1.829424         0.535917
 H         2.711672         0.364080         1.589939
 H         1.861499         1.921535        -1.340716
 H         1.738468         0.349374        -2.443396
 H         5.404759        -1.625705        -0.734771
 H         4.783229        -1.097131         0.850469
 H         3.262377        -1.524842        -1.920577
