19
Iteration:  2682charge 0 multiplicity 1
 C        -0.100330         0.143977         0.143645
 C         1.331991        -0.107930        -0.151044
 C         2.521860         0.568884         0.691805
 C         3.137708         0.341306        -0.587326
 C         1.925894         0.817065        -1.363336
 O         4.645108         0.347197        -0.831919
 C         4.693079        -1.099264        -0.391372
 C         3.226049        -1.146313        -0.885190
 O         1.844230        -1.506865        -0.357739
 H        -0.534025        -0.673770         0.701985
 H        -0.272363         0.982164         0.817999
 H        -0.804600         0.335220        -0.747557
 H         2.414142         1.666465         0.613434
 H         2.888067         0.320767         1.720528
 H         1.600435         1.857483        -1.127108
 H         1.853199         0.470333        -2.408199
 H         5.442441        -1.436037        -1.102056
 H         4.947450        -1.228736         0.674050
 H         3.367731        -1.537020        -1.851789
