19
Iteration:  3927
 C         0.022478        -0.090124         0.393399
 C         1.332711        -0.066283        -0.142076
 C         2.494020         0.660317         0.652406
 C         3.233353         0.384279        -0.744139
 C         1.997147         0.800330        -1.531136
 O         4.700948         0.326149        -0.791766
 C         4.522493        -1.068765        -0.201765
 C         3.147159        -1.103880        -0.921857
 O         1.787774        -1.453616        -0.503248
 H        -0.813653        -0.403901        -0.229556
 H        -0.181326        -0.520481         1.346651
 H        -0.234806         0.982152         0.628065
 H         2.288394         1.770131         0.617186
 H         2.848063         0.429324         1.653456
 H         1.794405         1.824510        -1.363943
 H         1.780461         0.346434        -2.559764
 H         5.331733        -1.612306        -0.653576
 H         4.678641        -1.005578         0.866449
 H         3.264117        -1.542509        -1.909121
