19
Iteration:  4279charge 0 multiplicity 1
 C         0.011206        -0.031633         0.333732
 C         1.405715         0.017722        -0.239463
 C         2.475223         0.622453         0.568558
 C         3.171704         0.339305        -0.742890
 C         1.967046         0.822749        -1.461553
 O         4.604403         0.316271        -0.793198
 C         4.549846        -1.095584        -0.306528
 C         3.170683        -1.138585        -0.845166
 O         1.873415        -1.431674        -0.321474
 H        -0.554243        -0.742593        -0.369484
 H         0.062472        -0.396736         1.400796
 H        -0.581112         0.879311         0.175231
 H         2.450839         1.721044         0.719360
 H         2.820020         0.282158         1.570310
 H         1.733860         1.863709        -1.164401
 H         1.818492         0.567283        -2.503086
 H         5.334864        -1.726855        -0.846069
 H         4.638550        -1.166372         0.779124
 H         3.180797        -1.449564        -1.867471
