19
Iteration:  2847charge 0 multiplicity 1
 C        -0.165461         0.002877         0.136742
 C         1.347536         0.006720        -0.110813
 C         2.473449         0.489673         0.758433
 C         3.225013         0.409024        -0.756370
 C         1.972093         0.862635        -1.356998
 O         4.770478         0.287449        -0.866267
 C         4.619104        -1.106082        -0.404661
 C         3.154307        -1.045154        -0.950099
 O         1.865704        -1.406932        -0.250881
 H        -0.398463        -0.686738         1.056712
 H        -0.665762         0.944080         0.188988
 H        -0.545919        -0.593664        -0.750774
 H         2.305345         1.370858         1.384005
 H         2.731920        -0.233620         1.629063
 H         1.773692         1.963409        -1.178136
 H         1.614964         0.361402        -2.251683
 H         5.310319        -1.857760        -0.912900
 H         4.748794        -1.102554         0.652890
 H         3.009951        -1.261484        -1.998299
