19
Iteration:   946
 C        -0.093956        -0.084839         0.124597
 C         1.325636         0.094744        -0.008339
 C         2.523329         0.512089         0.801796
 C         3.275968         0.372589        -0.598930
 C         1.979453         0.956916        -1.332814
 O         4.770620         0.331001        -0.793550
 C         4.558057        -1.272636        -0.532178
 C         3.133743        -1.098753        -0.985597
 O         1.784218        -1.356788        -0.400352
 H        -0.276608        -0.978301         0.745092
 H        -0.464636         0.698048         0.771145
 H        -0.787259        -0.268728        -0.767360
 H         2.490958         1.638913         0.826931
 H         2.811561         0.058213         1.737475
 H         1.774627         1.985428        -1.169498
 H         1.722779         0.445911        -2.225487
 H         5.260719        -1.873762        -1.179437
 H         4.673559        -1.303149         0.555760
 H         3.062471        -1.322608        -2.071235
