19
Iteration:  4582
 C        -0.025790         0.067609         0.368885
 C         1.327456        -0.123379        -0.197993
 C         2.533918         0.480061         0.566860
 C         3.257141         0.396376        -0.761277
 C         1.948981         0.831993        -1.438307
 O         4.700252         0.339723        -0.784261
 C         4.470502        -1.057107        -0.207855
 C         3.087469        -1.072013        -0.957601
 O         1.909324        -1.436758        -0.410216
 H        -0.805417        -0.445022        -0.246318
 H        -0.136628        -0.398385         1.368382
 H        -0.301566         1.094900         0.451722
 H         2.355783         1.519916         0.812864
 H         2.888160        -0.106401         1.448711
 H         1.621144         1.881895        -1.405105
 H         1.738970         0.335395        -2.422802
 H         5.336096        -1.659840        -0.535865
 H         4.597972        -1.039462         0.816848
 H         3.326804        -1.489621        -1.914066
