19
Iteration:   770charge 0 multiplicity 1
 C        -0.114619         0.166898         0.163183
 C         1.334860         0.002027        -0.102485
 C         2.474834         0.428500         0.730678
 C         3.269098         0.321532        -0.604127
 C         1.936014         0.909029        -1.225937
 O         4.660982         0.384997        -0.857714
 C         4.653992        -1.126634        -0.436802
 C         3.156018        -1.144223        -0.938803
 O         1.877754        -1.522861        -0.428417
 H        -0.358667        -0.770616         0.573077
 H        -0.470647         0.890516         0.845746
 H        -0.829922         0.371738        -0.737407
 H         2.388957         1.571768         1.031638
 H         2.807954        -0.030657         1.727472
 H         1.853185         2.017777        -1.241897
 H         1.684514         0.571208        -2.243444
 H         5.107731        -1.756515        -1.216536
 H         4.995240        -1.472937         0.532637
 H         3.250455        -1.451039        -1.980150
