19
Iteration:  2966
 C        -0.100499         0.004866         0.314529
 C         1.347884         0.027653        -0.169683
 C         2.559816         0.513117         0.645297
 C         3.252044         0.347497        -0.734647
 C         1.872290         0.845357        -1.441670
 O         4.711532         0.331521        -0.804259
 C         4.609026        -1.068410        -0.250912
 C         3.148757        -1.137594        -0.877856
 O         1.816658        -1.398379        -0.481105
 H        -0.200264        -0.847839         1.064476
 H        -0.442399         0.910702         0.761457
 H        -0.678855        -0.269741        -0.598379
 H         2.573475         1.458830         1.176578
 H         2.810782        -0.265053         1.437583
 H         1.667461         1.879789        -1.213769
 H         1.637363         0.438297        -2.348261
 H         5.418213        -1.726414        -0.657947
 H         4.776265        -0.925200         0.776727
 H         3.282970        -1.545587        -1.920175
