19
Iteration:  4497charge 0 multiplicity 1
 C        -0.093826        -0.022726         0.044247
 C         1.360221        -0.013319        -0.148045
 C         2.456800         0.577587         0.725287
 C         3.221035         0.377750        -0.705122
 C         1.911426         0.772207        -1.332414
 O         4.755137         0.323931        -0.852814
 C         4.535454        -1.166077        -0.483791
 C         3.160818        -1.053847        -0.861591
 O         1.920087        -1.359197        -0.163302
 H        -0.545802        -0.826245        -0.546146
 H        -0.293339        -0.138456         1.093308
 H        -0.400102         0.961472        -0.218419
 H         2.555371         1.617522         1.043482
 H         2.688697        -0.241312         1.447048
 H         1.781309         1.769039        -1.089741
 H         1.562984         0.521511        -2.308420
 H         5.278724        -1.791605        -1.001120
 H         4.626288        -1.212585         0.651191
 H         2.894096        -1.327216        -1.929593
