19
Iteration:   573
 C        -0.163450        -0.041552         0.242852
 C         1.293462         0.094081        -0.105274
 C         2.620107         0.548132         0.638670
 C         3.279688         0.355822        -0.700877
 C         1.897411         0.897438        -1.283348
 O         4.740340         0.293897        -0.718049
 C         4.565715        -1.212426        -0.442084
 C         3.116455        -1.052052        -0.973887
 O         1.850895        -1.429697        -0.400987
 H        -0.478953        -0.960784         0.549839
 H        -0.471981         0.700358         0.937518
 H        -0.729211         0.090009        -0.743411
 H         2.632331         1.630148         0.926244
 H         3.158338        -0.107059         1.353447
 H         1.800355         1.922128        -1.070028
 H         1.649651         0.719423        -2.349511
 H         5.297137        -1.664107        -1.085916
 H         4.729036        -1.428699         0.595244
 H         3.210040        -1.377994        -1.976353
