19
Iteration:   847charge 0 multiplicity 1
 C        -0.045070        -0.053009         0.296584
 C         1.344781        -0.045668        -0.199775
 C         2.533642         0.483194         0.683326
 C         3.293818         0.387244        -0.707994
 C         1.965701         0.933827        -1.279145
 O         4.787757         0.294518        -0.714018
 C         4.555471        -1.159505        -0.408491
 C         3.070753        -1.051724        -0.990272
 O         1.773172        -1.353287        -0.492011
 H        -0.086476        -0.353432         1.330007
 H        -0.474230         0.931566         0.196988
 H        -0.785988        -0.795151        -0.257836
 H         2.398608         1.543175         1.062437
 H         2.915766        -0.054047         1.618966
 H         1.503991         1.944849        -1.068229
 H         1.778335         0.616339        -2.304309
 H         5.197978        -1.945066        -0.897656
 H         4.454995        -1.220769         0.699815
 H         3.067535        -1.233773        -2.078900
