19
Iteration:  3508
 C        -0.132079        -0.048283         0.115104
 C         1.344404         0.016443        -0.151647
 C         2.498393         0.663483         0.745090
 C         3.175487         0.391341        -0.714062
 C         1.880245         0.795697        -1.381517
 O         4.735858         0.319571        -0.815362
 C         4.692802        -1.114266        -0.503134
 C         3.148396        -1.165654        -0.935591
 O         1.909635        -1.386287        -0.113663
 H        -0.525967        -0.752246        -0.731780
 H        -0.606769        -0.404388         1.014398
 H        -0.502102         0.919644        -0.104876
 H         2.393842         1.721645         1.138139
 H         2.817159        -0.093414         1.499824
 H         1.536656         1.799211        -1.274917
 H         1.735586         0.396928        -2.407614
 H         5.390644        -1.818052        -1.129717
 H         4.654781        -1.376295         0.593203
 H         3.062368        -1.362279        -2.070955
