19
Iteration:  2165
 C        -0.065368         0.057776         0.275636
 C         1.347562        -0.050899        -0.092048
 C         2.606618         0.551557         0.662614
 C         3.207633         0.339844        -0.688291
 C         1.966206         0.903262        -1.316074
 O         4.658008         0.318541        -0.808577
 C         4.608490        -1.130514        -0.225199
 C         3.120806        -1.118172        -0.915470
 O         1.804288        -1.441938        -0.585069
 H        -0.350781        -0.861158         1.026068
 H        -0.477919         0.980526         0.644069
 H        -0.665758        -0.143569        -0.643386
 H         2.283116         1.570559         0.936858
 H         2.984703         0.009393         1.555078
 H         1.948394         2.040900        -1.210474
 H         1.806687         0.636329        -2.419403
 H         5.205278        -1.633558        -1.024886
 H         4.706204        -1.401141         0.827532
 H         3.228132        -1.435766        -2.069548
