19
Iteration:   269
 C        -0.060183        -0.004139         0.171524
 C         1.369579         0.041099        -0.173941
 C         2.565211         0.478234         0.700588
 C         3.282869         0.318833        -0.581231
 C         1.965634         0.917841        -1.287962
 O         4.698812         0.320224        -0.690073
 C         4.622985        -1.216759        -0.581851
 C         3.076555        -1.053770        -0.970812
 O         1.738370        -1.369258        -0.353993
 H        -0.215917        -0.344163         1.182180
 H        -0.737289         0.886629        -0.048091
 H        -0.356242        -1.001932        -0.271326
 H         2.586988         1.526844         1.089634
 H         2.630625        -0.055410         1.664078
 H         1.731640         2.047648        -1.036130
 H         1.898690         0.695941        -2.410542
 H         5.235205        -1.565596        -1.402189
 H         4.940722        -1.570185         0.437471
 H         2.986410        -1.185427        -2.069593
