19
Iteration:  4781charge 0 multiplicity 1
 C        -0.048574        -0.098659         0.231098
 C         1.346462         0.144752        -0.178579
 C         2.496304         0.666125         0.711936
 C         3.228652         0.346831        -0.710291
 C         1.967405         0.764642        -1.431043
 O         4.661106         0.300014        -0.728963
 C         4.661758        -1.114570        -0.372084
 C         3.106195        -1.169370        -0.925354
 O         1.833875        -1.384176        -0.388557
 H        -0.428053        -1.052117        -0.066984
 H        -0.132329        -0.033832         1.329564
 H        -0.727791         0.755717        -0.150857
 H         2.609085         1.770502         1.089191
 H         2.716749         0.011504         1.608091
 H         1.778933         1.876698        -1.439829
 H         1.686136         0.364473        -2.416117
 H         5.352644        -1.760393        -0.958451
 H         4.635076        -1.165783         0.709874
 H         3.060873        -1.470867        -1.991313
