19
Iteration:  2141charge 0 multiplicity 1
 C        -0.060030         0.007644         0.294855
 C         1.376965        -0.014468        -0.213453
 C         2.531881         0.477479         0.717831
 C         3.295567         0.351776        -0.736068
 C         1.862468         0.952385        -1.343358
 O         4.771792         0.281724        -0.756220
 C         4.560351        -1.116250        -0.276039
 C         3.128462        -1.121235        -1.025772
 O         1.813770        -1.355214        -0.465495
 H        -0.104794        -0.489011         1.267308
 H        -0.620072         0.889040         0.308122
 H        -0.673569        -0.712361        -0.375694
 H         2.705284         1.572430         1.015834
 H         2.634032        -0.236286         1.604455
 H         1.548273         1.928607        -1.177473
 H         1.754719         0.683469        -2.418178
 H         5.335122        -1.798098        -0.627224
 H         4.297474        -1.228604         0.792508
 H         2.982249        -1.453877        -2.122557
