19
Iteration:   969
 C        -0.112367        -0.063174         0.210459
 C         1.364164         0.003022        -0.188715
 C         2.566342         0.567808         0.688198
 C         3.196964         0.409468        -0.617064
 C         1.978410         0.979157        -1.318991
 O         4.673024         0.206585        -0.741333
 C         4.621644        -1.168740        -0.479270
 C         3.148048        -1.106354        -0.941953
 O         1.812007        -1.352276        -0.404168
 H        -0.405562        -1.077785         0.593472
 H        -0.373121         0.591633         1.092921
 H        -0.863235         0.063984        -0.538541
 H         2.481468         1.635288         1.086404
 H         3.033807        -0.152519         1.338480
 H         1.772897         1.820768        -0.790871
 H         1.918049         0.985961        -2.386839
 H         5.190622        -1.909511        -1.132309
 H         4.768086        -1.268705         0.570676
 H         3.126628        -1.386969        -1.997571
