19
Iteration:  4538
 C        -0.127754        -0.072653         0.254304
 C         1.334644         0.059683        -0.121759
 C         2.486861         0.680538         0.621628
 C         3.264412         0.261488        -0.679739
 C         2.016777         0.804870        -1.334493
 O         4.656930         0.353170        -0.765154
 C         4.677646        -1.100377        -0.413396
 C         3.149283        -1.169376        -0.925569
 O         1.798924        -1.412125        -0.378782
 H        -0.719653        -0.957246        -0.052819
 H        -0.442992         0.097566         1.308235
 H        -0.529128         0.827154        -0.128219
 H         2.329849         1.738036         0.608558
 H         2.735467         0.291218         1.659779
 H         2.020514         1.922240        -1.295426
 H         1.828287         0.478580        -2.394561
 H         5.264015        -1.829556        -0.970769
 H         4.927386        -1.408400         0.505827
 H         3.238316        -1.363250        -2.005303
