19
Iteration:  4968charge 0 multiplicity 1
 C        -0.104951         0.054888         0.110166
 C         1.316792        -0.036116        -0.131037
 C         2.502669         0.572386         0.718698
 C         3.203392         0.346511        -0.613333
 C         2.039083         0.810735        -1.436525
 O         4.660922         0.363999        -0.840641
 C         4.637083        -1.099176        -0.401390
 C         3.120056        -1.157898        -0.786477
 O         1.842634        -1.449633        -0.335678
 H        -0.669395        -0.772591        -0.401988
 H        -0.224570        -0.144614         1.217817
 H        -0.490703         1.002336        -0.197855
 H         2.405490         1.599998         1.078001
 H         2.969234        -0.011706         1.569499
 H         1.799541         1.870309        -1.435529
 H         2.001260         0.454061        -2.517981
 H         5.134244        -1.738490        -1.085529
 H         4.804125        -1.018294         0.657284
 H         3.211226        -1.344788        -1.838947
