19
Iteration:   212
 C         0.000796         0.048619         0.329035
 C         1.389070        -0.108307        -0.228266
 C         2.522709         0.488059         0.760740
 C         3.249452         0.345329        -0.680333
 C         1.953984         1.000197        -1.361018
 O         4.695151         0.256610        -0.790528
 C         4.536488        -1.042806        -0.377212
 C         3.102884        -1.161917        -0.979236
 O         1.801428        -1.423481        -0.504027
 H        -0.144220        -0.778413         1.016267
 H        -0.073860         0.936205         1.036741
 H        -0.796693         0.191366        -0.423203
 H         2.294147         1.446412         1.326140
 H         2.727920        -0.467304         1.345408
 H         1.703115         2.134631        -1.052914
 H         1.681597         0.932788        -2.431944
 H         5.443902        -1.560902        -0.664762
 H         4.529234        -1.050831         0.748289
 H         3.194399        -1.525806        -2.021441
