19
Iteration:  2862charge 0 multiplicity 1
 C        -0.115230        -0.098324         0.060338
 C         1.377964        -0.002477        -0.146522
 C         2.561623         0.571728         0.719556
 C         3.236506         0.366811        -0.652788
 C         1.919898         0.957453        -1.353635
 O         4.709976         0.315052        -0.815139
 C         4.596056        -1.117722        -0.467657
 C         3.090526        -1.154964        -0.886193
 O         1.854645        -1.399317        -0.212910
 H        -0.427425        -0.858223         0.780551
 H        -0.388952         0.881465         0.641361
 H        -0.549737        -0.371238        -0.882500
 H         2.550344         1.661220         0.839115
 H         2.914392        -0.038082         1.483547
 H         1.552000         1.958380        -1.098176
 H         1.874049         0.834437        -2.494670
 H         5.299039        -1.684715        -1.099057
 H         4.687651        -1.320727         0.655509
 H         3.017227        -1.559490        -1.906104
