19
Iteration:  2524
 C        -0.222459         0.008358         0.167095
 C         1.379359         0.014415        -0.174324
 C         2.524055         0.576732         0.703123
 C         3.273405         0.367782        -0.677857
 C         1.935694         0.907522        -1.365059
 O         4.697933         0.286431        -0.850750
 C         4.628173        -1.174258        -0.393055
 C         3.132387        -1.099338        -0.832232
 O         1.894673        -1.426733        -0.314990
 H        -0.293112        -0.066283         1.309693
 H        -0.625551         0.874201        -0.285190
 H        -0.667249        -0.857604        -0.315120
 H         2.473825         1.582994         1.192476
 H         2.668375        -0.335077         1.353413
 H         1.531076         1.938930        -1.297990
 H         1.846721         0.516215        -2.353415
 H         5.396091        -1.648758        -1.059997
 H         4.766768        -1.451778         0.630345
 H         3.186785        -1.098232        -1.911155
