19
Iteration:  1770
 C        -0.103172         0.002615         0.209095
 C         1.342921         0.010405        -0.085962
 C         2.535175         0.539704         0.749938
 C         3.215957         0.340941        -0.671911
 C         1.991810         0.891244        -1.328548
 O         4.668448         0.324091        -0.799751
 C         4.623252        -1.168300        -0.431967
 C         3.128134        -1.126622        -0.952248
 O         1.800766        -1.453120        -0.442688
 H        -0.367401        -0.838646         0.747293
 H        -0.334965         1.011360         0.763098
 H        -0.748665         0.077948        -0.668682
 H         2.397610         1.573876         0.939867
 H         2.946857         0.052467         1.619173
 H         1.810170         1.932742        -0.839910
 H         1.861833         0.845469        -2.460031
 H         5.451133        -1.504630        -1.065780
 H         4.821925        -1.323512         0.683882
 H         3.409324        -1.226011        -1.961758
