19
Iteration:  3019charge 0 multiplicity 1
 C        -0.094494        -0.058185         0.092434
 C         1.375587         0.043143        -0.077753
 C         2.536795         0.636831         0.719022
 C         3.173592         0.313022        -0.645056
 C         2.012769         0.911903        -1.334533
 O         4.641554         0.338130        -0.700992
 C         4.588930        -1.162103        -0.544918
 C         3.104112        -1.148746        -0.956552
 O         1.889959        -1.453199        -0.275416
 H        -0.292145        -0.093007         1.178643
 H        -0.609969         0.659298        -0.453058
 H        -0.542893        -1.001222        -0.340666
 H         2.462193         1.679767         0.681699
 H         2.893298         0.396691         1.768266
 H         1.772510         2.010584        -1.342956
 H         1.790140         0.407946        -2.216131
 H         5.346806        -1.482266        -1.320723
 H         4.893523        -1.379003         0.461805
 H         2.983831        -1.366010        -2.073297
