19
Iteration:  2135charge 0 multiplicity 1
 C        -0.027182        -0.007121         0.270036
 C         1.326739         0.053677        -0.199984
 C         2.523415         0.452250         0.694838
 C         3.248771         0.375671        -0.715010
 C         1.865276         0.934364        -1.370578
 O         4.784608         0.275129        -0.761683
 C         4.535500        -1.154579        -0.265711
 C         3.102374        -1.094407        -1.053460
 O         1.863577        -1.355620        -0.424405
 H         0.032537        -0.389189         1.377635
 H        -0.632559         0.949448         0.294582
 H        -0.448509        -0.820702        -0.272161
 H         2.463529         1.421231         1.143018
 H         2.492987        -0.241141         1.508169
 H         1.601481         2.060904        -1.182723
 H         1.773903         0.679802        -2.444539
 H         5.355778        -1.726422        -0.762883
 H         4.440639        -1.456835         0.794400
 H         3.224010        -1.479056        -2.064398
