19
Iteration:  4682
 C        -0.121297         0.004383         0.088598
 C         1.327692        -0.050880        -0.086926
 C         2.496829         0.606794         0.709324
 C         3.216332         0.332263        -0.720480
 C         1.951455         0.856083        -1.381945
 O         4.682287         0.348765        -0.841725
 C         4.714154        -1.114479        -0.400524
 C         3.134618        -1.169704        -0.835969
 O         1.834118        -1.431754        -0.269000
 H        -0.627758         0.072487        -0.862197
 H        -0.599260        -0.761773         0.671103
 H        -0.241323         0.929225         0.679615
 H         2.358438         1.723337         0.793674
 H         2.894401         0.122063         1.600482
 H         1.712872         1.940990        -1.330940
 H         1.612535         0.449020        -2.343822
 H         5.485282        -1.688531        -0.961019
 H         4.983095        -1.180167         0.703903
 H         3.090769        -1.432210        -1.898340
