19
Iteration:  2556
 C        -0.109613         0.149211         0.139981
 C         1.383891        -0.053302        -0.119701
 C         2.512869         0.555543         0.691704
 C         3.221667         0.284049        -0.702360
 C         1.992990         0.792385        -1.322655
 O         4.635570         0.392467        -0.764910
 C         4.686678        -1.014347        -0.454190
 C         3.132606        -1.251797        -0.897926
 O         1.810575        -1.460336        -0.330296
 H        -0.478590         0.239290         1.245548
 H        -0.471138         0.996778        -0.386436
 H        -0.603474        -0.783461        -0.236963
 H         2.651815         1.555625         1.090100
 H         2.626366        -0.031266         1.625460
 H         1.708720         1.856904        -1.106905
 H         1.769628         0.578605        -2.356072
 H         5.497508        -1.503547        -1.090409
 H         4.783398        -1.457547         0.502281
 H         3.092916        -1.484555        -2.036903
