19
Iteration:  4716
 C        -0.085863        -0.025682         0.289521
 C         1.355973         0.004998        -0.170475
 C         2.503465         0.512920         0.695570
 C         3.226248         0.315004        -0.744906
 C         1.967631         0.827321        -1.491318
 O         4.657704         0.369238        -0.818932
 C         4.589258        -1.126949        -0.271841
 C         3.135987        -1.111761        -0.858216
 O         1.850857        -1.370115        -0.422298
 H        -0.838915        -0.547234        -0.246458
 H        -0.080681        -0.287154         1.332983
 H        -0.309421         1.078390         0.070376
 H         2.504105         1.574175         1.183077
 H         2.817244        -0.147161         1.539496
 H         1.764888         1.905722        -1.438977
 H         1.768132         0.297300        -2.431988
 H         5.467950        -1.714170        -0.695553
 H         4.742871        -0.983123         0.826027
 H         3.280152        -1.488146        -1.923635
