19
Iteration:  3289
 C         0.003015         0.014484         0.346159
 C         1.371736        -0.035894        -0.167957
 C         2.444378         0.745142         0.550414
 C         3.195132         0.326547        -0.762125
 C         1.930805         0.796668        -1.455338
 O         4.627744         0.275953        -0.805119
 C         4.583409        -1.011207        -0.191833
 C         3.186572        -1.156131        -0.906617
 O         1.871249        -1.506854        -0.378144
 H        -0.797040         0.256816        -0.401610
 H        -0.257280        -0.987312         0.508913
 H        -0.188812         0.513900         1.340033
 H         2.296835         1.777919         0.453265
 H         2.764313         0.323097         1.516422
 H         1.946309         1.929076        -1.421815
 H         1.733419         0.397030        -2.401509
 H         5.349582        -1.597033        -0.758048
 H         4.809974        -1.114298         0.833994
 H         3.344577        -1.540610        -1.949835
