19
Iteration:  3445
 C        -0.077742         0.031462         0.407565
 C         1.311145        -0.023686        -0.209363
 C         2.511898         0.499884         0.605943
 C         3.227692         0.353407        -0.762907
 C         1.921786         0.773026        -1.445488
 O         4.744705         0.369494        -0.835103
 C         4.590892        -1.019224        -0.183494
 C         3.119962        -1.075932        -0.942627
 O         1.884087        -1.446815        -0.412511
 H        -0.702551        -0.827015         0.031058
 H        -0.067552         0.259993         1.543710
 H        -0.596790         0.766793        -0.194117
 H         2.514041         1.504873         1.084582
 H         2.752765        -0.318604         1.277907
 H         1.535497         1.781173        -1.441261
 H         1.932998         0.283566        -2.500368
 H         5.204482        -1.742278        -0.687453
 H         4.442155        -1.003204         0.886246
 H         3.230272        -1.508297        -1.937365
