19
Iteration:  2687charge 0 multiplicity 1
 C        -0.092452         0.109245         0.128674
 C         1.345240        -0.085676        -0.141519
 C         2.533613         0.550263         0.694502
 C         3.191806         0.365154        -0.603302
 C         1.930650         0.783096        -1.366898
 O         4.609691         0.351723        -0.813924
 C         4.683856        -1.067816        -0.418450
 C         3.226696        -1.169959        -0.854198
 O         1.811798        -1.483782        -0.339386
 H        -0.606679        -0.697569         0.731787
 H        -0.227641         1.092048         0.639821
 H        -0.627305         0.317903        -0.773671
 H         2.542005         1.650675         0.758117
 H         2.881558         0.118239         1.618456
 H         1.497781         1.800478        -1.156742
 H         1.879097         0.556438        -2.444846
 H         5.477139        -1.561575        -1.100614
 H         4.957843        -1.131957         0.649532
 H         3.214760        -1.427843        -1.988567
