19
Iteration:  2519charge 0 multiplicity 1
 C        -0.160932        -0.016131         0.181969
 C         1.375764        -0.014086        -0.171095
 C         2.530781         0.587780         0.727181
 C         3.248079         0.382193        -0.663497
 C         1.963630         0.870611        -1.383637
 O         4.710615         0.272365        -0.840280
 C         4.580694        -1.164680        -0.402809
 C         3.144983        -1.074263        -0.864941
 O         1.861288        -1.394866        -0.313538
 H        -0.327675        -0.105272         1.227310
 H        -0.683902         0.914322        -0.215742
 H        -0.581913        -0.903632        -0.365503
 H         2.426019         1.572633         1.137380
 H         2.731030        -0.239142         1.375708
 H         1.498238         1.850300        -1.195982
 H         2.018046         0.554031        -2.473996
 H         5.256306        -1.702138        -1.062969
 H         4.748298        -1.241183         0.721128
 H         3.141995        -1.172873        -2.019650
