19
Iteration:  1885charge 0 multiplicity 1
 C        -0.130059        -0.015938         0.112641
 C         1.377175         0.003808        -0.140862
 C         2.527786         0.498628         0.792862
 C         3.267169         0.401740        -0.656838
 C         1.936414         0.909515        -1.247671
 O         4.735626         0.298388        -0.761291
 C         4.623311        -1.180175        -0.516426
 C         3.151273        -1.119618        -1.007964
 O         1.800610        -1.393071        -0.323220
 H        -0.470454        -0.075248         1.201062
 H        -0.442887         0.966289        -0.292444
 H        -0.736833        -0.712336        -0.403848
 H         2.354255         1.610915         0.957589
 H         3.045047        -0.080071         1.618414
 H         1.660510         1.945415        -1.125071
 H         1.634965         0.684693        -2.258676
 H         5.392323        -1.761174        -1.116375
 H         4.697373        -1.282725         0.571640
 H         2.823337        -1.334873        -2.082957
