19
Iteration:  2005charge 0 multiplicity 1
 C        -0.133426        -0.056150         0.342512
 C         1.306239         0.091672        -0.171037
 C         2.560741         0.494201         0.656432
 C         3.283219         0.398747        -0.672340
 C         1.904265         0.881196        -1.434298
 O         4.757144         0.260759        -0.777270
 C         4.642682        -1.165483        -0.301968
 C         3.120389        -1.070102        -0.902535
 O         1.774643        -1.367626        -0.487428
 H        -0.209171        -1.119332         0.748309
 H        -0.307495         0.778184         1.021314
 H        -0.746064         0.059685        -0.496315
 H         2.562948         1.567092         1.008830
 H         2.873997        -0.210654         1.521846
 H         1.518874         1.938794        -1.376631
 H         1.829169         0.650647        -2.498870
 H         5.159355        -1.913651        -0.999570
 H         4.795796        -1.268556         0.792650
 H         3.372603        -1.234999        -1.949131
