19
Iteration:  1301charge 0 multiplicity 1
 C        -0.132518         0.008244         0.282891
 C         1.392611         0.046176        -0.217102
 C         2.501130         0.444459         0.695149
 C         3.262309         0.309716        -0.696112
 C         1.940255         0.959908        -1.251126
 O         4.721761         0.261426        -0.785759
 C         4.597352        -1.107095        -0.401755
 C         3.164700        -1.116409        -0.996523
 O         1.810344        -1.413434        -0.444148
 H        -0.191561         0.014610         1.366911
 H        -0.519004         1.132721         0.118035
 H        -0.711168        -0.860247        -0.260772
 H         2.424097         1.546369         1.054465
 H         2.634791        -0.332437         1.556869
 H         1.793829         2.023211        -0.978377
 H         1.690376         0.816593        -2.303792
 H         5.511518        -1.647507        -0.693295
 H         4.597430        -1.016231         0.683141
 H         3.117375        -1.366801        -2.115395
