19
Iteration:  2310charge 0 multiplicity 1
 C        -0.087589         0.101875         0.335247
 C         1.401479        -0.003038        -0.115020
 C         2.571092         0.475219         0.692367
 C         3.235122         0.310525        -0.685814
 C         1.994656         0.836298        -1.404299
 O         4.658904         0.344706        -0.682156
 C         4.620177        -1.092729        -0.331158
 C         3.124900        -1.140640        -1.011097
 O         1.766755        -1.431064        -0.558841
 H        -0.101575         0.078398         1.430833
 H        -0.677976         0.988482        -0.084557
 H        -0.718271        -0.711723        -0.017606
 H         2.472940         1.526359         0.803878
 H         2.789392        -0.077750         1.564511
 H         1.607955         1.892758        -1.196307
 H         1.885718         0.570558        -2.476821
 H         5.358321        -1.673307        -0.843035
 H         4.524180        -1.227409         0.775568
 H         3.299936        -1.413123        -2.124834
