19
Iteration:  4854
 C        -0.147346         0.040962         0.141288
 C         1.407743        -0.087442        -0.103445
 C         2.594241         0.660825         0.665602
 C         3.222809         0.340594        -0.729808
 C         1.948702         0.788707        -1.423113
 O         4.678093         0.338705        -0.787311
 C         4.623387        -1.043546        -0.337171
 C         3.152366        -1.192467        -0.841250
 O         1.785198        -1.461281        -0.329487
 H        -0.750619         0.195221        -0.783496
 H        -0.593315        -0.843381         0.570159
 H        -0.392600         0.914255         0.781395
 H         2.540214         1.643554         0.913717
 H         2.931270         0.178850         1.540166
 H         1.869581         1.887477        -1.333750
 H         1.733072         0.379626        -2.408642
 H         5.347491        -1.564841        -0.961374
 H         4.752447        -1.112477         0.754214
 H         3.096088        -1.389908        -1.923812
