19
Iteration:  4016charge 0 multiplicity 1
 C        -0.163850        -0.058134         0.096025
 C         1.374897         0.043784        -0.062550
 C         2.455797         0.693765         0.723634
 C         3.284485         0.417650        -0.603593
 C         1.870921         0.726488        -1.349014
 O         4.676251         0.273566        -0.935300
 C         4.708401        -1.136207        -0.447440
 C         3.183365        -1.127322        -0.806696
 O         1.856396        -1.378600        -0.285964
 H        -0.544457         0.017451        -0.960611
 H        -0.312915        -1.039344         0.482548
 H        -0.507693         0.837402         0.578439
 H         2.193394         1.781337         0.804718
 H         2.807659         0.322584         1.666594
 H         1.720872         1.780415        -1.175413
 H         1.657163         0.133422        -2.300207
 H         5.426552        -1.633737        -1.141711
 H         4.929430        -1.268965         0.573630
 H         3.109946        -1.544959        -1.845388
