19
Iteration:  1358charge 0 multiplicity 1
 C        -0.056125        -0.022548         0.291951
 C         1.343833         0.067999        -0.174050
 C         2.458518         0.546075         0.700932
 C         3.214811         0.395252        -0.734976
 C         1.886111         0.930155        -1.354871
 O         4.735613         0.264030        -0.679838
 C         4.559454        -1.257072        -0.406079
 C         3.175906        -1.115517        -1.047079
 O         1.916445        -1.384629        -0.394168
 H        -0.134645        -1.000575         0.897418
 H        -0.349957         0.838803         0.922860
 H        -0.976532         0.006451        -0.537434
 H         2.417057         1.698192         0.786584
 H         2.774779        -0.112185         1.572952
 H         1.647334         2.051016        -1.185496
 H         1.637163         0.758327        -2.466007
 H         5.365837        -1.847030        -0.918597
 H         4.742595        -1.284948         0.671923
 H         3.027934        -1.288527        -2.127643
