19
Iteration:  4572
 C        -0.055688         0.012754         0.369985
 C         1.369063        -0.025164        -0.230230
 C         2.563369         0.489140         0.572678
 C         3.205060         0.443589        -0.760656
 C         1.862451         0.808451        -1.478991
 O         4.718416         0.330103        -0.765919
 C         4.522071        -1.094324        -0.193771
 C         3.191032        -1.055786        -0.912759
 O         1.845691        -1.463928        -0.388080
 H        -0.802392        -0.533316        -0.213620
 H         0.006735        -0.138468         1.436302
 H        -0.217706         1.012283         0.127755
 H         2.434745         1.381540         1.172642
 H         2.946493        -0.302077         1.272196
 H         1.741913         1.871417        -1.472294
 H         1.728499         0.399486        -2.495222
 H         5.054537        -1.750805        -0.822325
 H         4.577670        -1.072833         0.796850
 H         3.185245        -1.246679        -1.993547
