19
Iteration:  3991charge 0 multiplicity 1
 C        -0.151500        -0.032844         0.091786
 C         1.388609        -0.048071        -0.128585
 C         2.517192         0.644037         0.680611
 C         3.257582         0.400450        -0.630771
 C         1.984935         0.811107        -1.415237
 O         4.619324         0.342351        -0.891009
 C         4.653511        -1.068099        -0.420156
 C         3.103731        -1.140953        -0.859800
 O         1.846061        -1.485110        -0.174528
 H        -0.746302         0.310490        -0.775507
 H        -0.314311        -1.094044         0.373935
 H        -0.223953         0.798767         0.833728
 H         2.484673         1.779181         0.739097
 H         2.920343         0.187458         1.602876
 H         1.804634         1.822585        -1.178185
 H         1.847284         0.469863        -2.440212
 H         5.283847        -1.660940        -0.985412
 H         4.896735        -1.121771         0.637221
 H         3.117528        -1.573928        -1.826148
