19
Iteration:  1210charge 0 multiplicity 1
 C         0.004908        -0.065700         0.207174
 C         1.395097         0.019913        -0.187944
 C         2.553626         0.517754         0.713467
 C         3.308649         0.406328        -0.647977
 C         1.963448         0.986200        -1.369718
 O         4.668969         0.260546        -0.730366
 C         4.480140        -1.168631        -0.456394
 C         3.114507        -1.124541        -0.956086
 O         1.803084        -1.373482        -0.359538
 H        -0.223698        -0.965454         0.892486
 H        -0.417057         0.823504         0.899899
 H        -0.556989        -0.203087        -0.704229
 H         2.376428         1.564190         0.927090
 H         2.710454        -0.100826         1.627701
 H         1.537188         1.949798        -1.088788
 H         1.881754         0.880042        -2.467683
 H         5.092948        -1.842221        -1.044662
 H         4.617130        -1.360658         0.613952
 H         3.156254        -1.368869        -2.104948
