19
Iteration:  2620
 C        -0.048469        -0.111312         0.318768
 C         1.402272         0.029219        -0.120402
 C         2.574009         0.698214         0.577033
 C         3.212144         0.334721        -0.735580
 C         1.954230         0.883145        -1.438514
 O         4.700908         0.296422        -0.763243
 C         4.523273        -1.109365        -0.261883
 C         3.130444        -1.121299        -0.895686
 O         1.788739        -1.414353        -0.429472
 H        -0.062875        -1.135236         0.811638
 H        -0.539170         0.688795         0.813991
 H        -0.490172        -0.240751        -0.700975
 H         2.624244         1.766040         0.649622
 H         2.790018         0.161672         1.499306
 H         1.634777         1.957160        -1.195390
 H         1.722475         0.657780        -2.494839
 H         5.366340        -1.691684        -0.819684
 H         4.520282        -1.366870         0.813505
 H         3.192815        -1.722524        -1.877117
