19
Iteration:  4476
 C        -0.171721         0.004590         0.114127
 C         1.352166         0.024760        -0.054666
 C         2.617654         0.645082         0.673149
 C         3.228541         0.339836        -0.683148
 C         1.917732         0.875486        -1.325095
 O         4.641105         0.282407        -0.836409
 C         4.657848        -1.102264        -0.374487
 C         3.164557        -1.152715        -0.933713
 O         1.859621        -1.498664        -0.297784
 H        -0.621747        -0.379058        -0.795795
 H        -0.522752        -0.462634         1.006019
 H        -0.440814         1.076963         0.125023
 H         2.215355         1.657874         0.716493
 H         2.868971         0.305749         1.687151
 H         1.593755         1.864825        -1.343526
 H         1.827328         0.351389        -2.246359
 H         5.396741        -1.580813        -1.019004
 H         4.821491        -1.071904         0.774984
 H         3.219623        -1.502046        -2.005376
