19
Iteration:  4495charge 0 multiplicity 1
 C        -0.109214         0.004582         0.041154
 C         1.368400        -0.024184        -0.141661
 C         2.455938         0.599731         0.746780
 C         3.228584         0.372936        -0.703539
 C         1.902400         0.767253        -1.338662
 O         4.749359         0.337497        -0.856911
 C         4.541934        -1.170352        -0.471084
 C         3.153717        -1.076990        -0.868881
 O         1.933517        -1.368371        -0.185657
 H        -0.497058        -0.843290        -0.557460
 H        -0.381681        -0.195779         1.099460
 H        -0.455664         0.970389        -0.133213
 H         2.601610         1.633315         0.998261
 H         2.763215        -0.210265         1.489679
 H         1.749632         1.807183        -1.063453
 H         1.515090         0.551340        -2.343100
 H         5.327184        -1.834801        -0.887485
 H         4.651350        -1.281808         0.582334
 H         2.874270        -1.350568        -1.927838
