19
Iteration:   845
 C        -0.037449        -0.051226         0.294150
 C         1.333454        -0.048948        -0.199149
 C         2.534908         0.490373         0.677297
 C         3.276717         0.376192        -0.699371
 C         1.962534         0.943728        -1.264452
 O         4.792874         0.284540        -0.711756
 C         4.548385        -1.156618        -0.417560
 C         3.074690        -1.054638        -0.999131
 O         1.788370        -1.354221        -0.483911
 H        -0.062290        -0.396442         1.321868
 H        -0.541261         0.930583         0.198134
 H        -0.783407        -0.759845        -0.277851
 H         2.405922         1.499472         0.995310
 H         2.876137         0.021470         1.600182
 H         1.538573         1.963999        -1.104222
 H         1.760278         0.672158        -2.327751
 H         5.205460        -1.911010        -0.861364
 H         4.481178        -1.223480         0.727836
 H         3.075571        -1.243676        -2.106156
