19
Iteration:  1487charge 0 multiplicity 1
 C        -0.065561        -0.046689         0.402407
 C         1.336929         0.002824        -0.196216
 C         2.476590         0.508239         0.641029
 C         3.295993         0.401760        -0.653927
 C         1.875048         0.917578        -1.401763
 O         4.853023         0.284053        -0.634652
 C         4.623470        -1.195644        -0.487200
 C         3.109725        -1.065594        -0.972323
 O         1.760421        -1.349306        -0.512532
 H        -0.228753        -0.214472         1.454426
 H        -0.839053         0.839825         0.303410
 H        -0.607485        -0.859270        -0.058196
 H         2.477384         1.601771         1.079060
 H         2.700861        -0.016469         1.610837
 H         1.658152         1.963308        -1.260673
 H         1.822553         0.518861        -2.367052
 H         5.224267        -1.875503        -1.117590
 H         4.711827        -1.476131         0.558457
 H         3.014357        -1.280305        -2.093995
