19
Iteration:  2112charge 0 multiplicity 1
 C        -0.099587        -0.036519         0.279802
 C         1.324913        -0.057587        -0.207089
 C         2.549601         0.607198         0.698544
 C         3.275906         0.390470        -0.640423
 C         2.028474         0.946395        -1.405183
 O         4.666418         0.279234        -0.692215
 C         4.594865        -1.191099        -0.460638
 C         3.086407        -1.066177        -0.901841
 O         1.826328        -1.411381        -0.450869
 H        -0.171968        -0.163466         1.468918
 H        -0.730995         0.818902         0.023151
 H        -0.531277        -0.977172        -0.083030
 H         2.579164         1.625678         1.009667
 H         2.757326         0.031328         1.599197
 H         1.752987         2.067121        -1.290612
 H         1.940088         0.632953        -2.507027
 H         5.201033        -1.872151        -1.129039
 H         4.692605        -1.525248         0.580074
 H         3.069514        -1.211084        -1.999071
