19
Iteration:  4530charge 0 multiplicity 1
 C        -0.164522        -0.061390         0.208827
 C         1.316825         0.020292        -0.085672
 C         2.518764         0.726495         0.686676
 C         3.197088         0.298484        -0.669105
 C         2.075967         0.848035        -1.426040
 O         4.648930         0.362998        -0.785301
 C         4.644875        -1.182430        -0.491438
 C         3.179016        -1.141105        -0.840460
 O         1.811006        -1.461840        -0.342102
 H        -0.630205        -0.967544        -0.173168
 H        -0.319592         0.008223         1.262051
 H        -0.700777         0.735088        -0.291946
 H         2.541443         1.816859         0.868040
 H         2.801982         0.240188         1.636252
 H         1.991208         1.861305        -1.197425
 H         1.852089         0.594683        -2.431614
 H         5.348274        -1.692250        -1.137879
 H         4.849871        -1.309045         0.616110
 H         3.256410        -1.384792        -1.960834
