19
Iteration:  4162
 C        -0.158507        -0.044818         0.092845
 C         1.324125        -0.001631        -0.130046
 C         2.470800         0.595870         0.699177
 C         3.268720         0.422810        -0.703588
 C         1.922981         0.733357        -1.410104
 O         4.733098         0.288584        -0.879015
 C         4.744013        -1.096216        -0.450828
 C         3.078104        -1.066489        -0.825299
 O         1.836998        -1.365209        -0.157936
 H        -0.512881        -0.367729        -0.819058
 H        -0.327346        -0.665180         0.925953
 H        -0.458117         0.957643         0.345695
 H         2.337410         1.530083         1.078916
 H         2.808095         0.084986         1.553406
 H         1.536097         1.766286        -1.277197
 H         1.723747         0.290990        -2.398429
 H         5.429253        -1.591876        -1.105295
 H         4.951560        -1.346528         0.579295
 H         3.157719        -1.519753        -1.811162
