19
Iteration:  2939
 C        -0.028938         0.023128         0.322929
 C         1.392759        -0.066116        -0.161504
 C         2.553653         0.575253         0.627134
 C         3.244815         0.301653        -0.728875
 C         1.956276         0.922081        -1.405707
 O         4.611142         0.355323        -0.757998
 C         4.576343        -1.018872        -0.243898
 C         3.122921        -1.187788        -0.998147
 O         1.802533        -1.515087        -0.469829
 H        -0.462783        -0.827640         0.782126
 H         0.032990         0.813167         1.195369
 H        -0.614614         0.269737        -0.579907
 H         2.577519         1.674742         0.750670
 H         2.690223         0.188386         1.612705
 H         1.840554         2.015639        -1.209990
 H         1.748559         0.368923        -2.427497
 H         5.435688        -1.555305        -0.630777
 H         4.688310        -0.869812         0.902483
 H         3.194961        -1.696146        -1.958811
