19
Iteration:   153
 C        -0.077457        -0.010680         0.220105
 C         1.414349        -0.079231        -0.093863
 C         2.456935         0.553561         0.655827
 C         3.204080         0.461031        -0.666531
 C         1.920666         1.011286        -1.339010
 O         4.760086         0.240919        -0.745157
 C         4.545419        -1.279685        -0.498781
 C         3.111790        -1.047597        -0.981143
 O         1.906600        -1.387283        -0.307448
 H        -0.359838        -1.031004         0.441324
 H        -0.304013         0.631144         1.013730
 H        -0.689344         0.094763        -0.638606
 H         2.282816         1.591283         0.874481
 H         2.814446         0.140728         1.568182
 H         1.703998         2.003368        -1.268579
 H         1.642780         0.558449        -2.272008
 H         5.190632        -1.886456        -1.163416
 H         4.737401        -1.498307         0.533129
 H         2.980657        -1.142159        -2.058960
