19
Iteration:  4046
 C        -0.112609        -0.048158         0.207554
 C         1.364974        -0.015541        -0.190818
 C         2.554255         0.545668         0.598339
 C         3.213333         0.420896        -0.715905
 C         1.924953         0.839391        -1.475500
 O         4.692390         0.344275        -0.792330
 C         4.558728        -1.062509        -0.371125
 C         3.146008        -1.137119        -0.882079
 O         1.902562        -1.439998        -0.207519
 H        -0.741985        -0.513961        -0.617029
 H        -0.282837        -0.533890         1.203016
 H        -0.504733         0.994591         0.460465
 H         2.454978         1.596246         1.022427
 H         2.991902        -0.036135         1.395223
 H         1.724157         1.844777        -1.261814
 H         1.778322         0.600223        -2.553213
 H         5.281621        -1.590919        -0.889850
 H         4.598996        -1.290252         0.708824
 H         2.957664        -1.625570        -1.773111
