19
Iteration:  4640
 C        -0.195225        -0.070958         0.125975
 C         1.363500        -0.020341        -0.137526
 C         2.515272         0.612442         0.717260
 C         3.225873         0.376724        -0.679042
 C         1.946420         0.801939        -1.489088
 O         4.780912         0.336999        -0.828547
 C         4.660428        -1.112212        -0.422102
 C         3.141036        -1.065484        -0.883653
 O         1.815382        -1.400605        -0.155197
 H        -0.674768         0.203803        -0.774255
 H        -0.563861        -0.999959         0.466720
 H        -0.435208         0.695626         0.885680
 H         2.529480         1.641173         1.232522
 H         2.909987        -0.174700         1.371641
 H         1.821182         1.863384        -1.591578
 H         1.766087         0.368945        -2.444497
 H         5.173533        -1.620550        -1.175881
 H         4.708055        -1.271668         0.618771
 H         2.910984        -1.526252        -1.880985
