19
Iteration:  3358
 C        -0.095116         0.004278         0.100938
 C         1.365483        -0.079264        -0.201652
 C         2.501087         0.739981         0.682017
 C         3.225820         0.296899        -0.729640
 C         1.976136         0.753384        -1.310555
 O         4.676058         0.350414        -0.869380
 C         4.637043        -1.049271        -0.434953
 C         3.139358        -1.151398        -0.837812
 O         1.860967        -1.435723        -0.141378
 H        -0.598599         0.290003        -0.935401
 H        -0.438925        -1.114927         0.383961
 H        -0.398602         0.725999         0.861832
 H         2.128688         1.775766         0.455087
 H         2.715495         0.258734         1.631469
 H         1.641692         1.790676        -1.070611
 H         1.605290         0.438989        -2.392221
 H         5.296830        -1.758110        -1.001760
 H         4.840481        -1.330879         0.628868
 H         3.191584        -1.462562        -1.859445
