19
Iteration:  1385
 C        -0.087378         0.046241         0.229167
 C         1.345503        -0.075599        -0.168367
 C         2.584119         0.498571         0.711840
 C         3.224341         0.425323        -0.637284
 C         1.964393         0.872217        -1.368725
 O         4.722371         0.348226        -0.733765
 C         4.605898        -1.123200        -0.471919
 C         3.111364        -1.172450        -0.949398
 O         1.763195        -1.443010        -0.371867
 H        -0.472495        -0.880876         0.558498
 H        -0.271366         0.930658         0.866109
 H        -0.730268         0.318425        -0.511074
 H         2.517699         1.536530         0.911623
 H         2.963436        -0.046506         1.566533
 H         1.638596         1.860422        -1.079616
 H         1.939874         0.704229        -2.456709
 H         5.308466        -1.651877        -1.117549
 H         4.912391        -1.246890         0.588550
 H         3.013150        -1.241595        -2.035834
