19
Iteration:  4230
 C        -0.096414        -0.007551         0.319796
 C         1.388653         0.007552        -0.225576
 C         2.495384         0.590180         0.594302
 C         3.264603         0.405739        -0.855393
 C         1.803991         0.754261        -1.466464
 O         4.733333         0.320088        -0.820983
 C         4.576521        -1.069924        -0.176473
 C         3.113871        -1.140008        -0.867938
 O         1.898286        -1.398487        -0.337317
 H        -0.852934         0.121444        -0.379963
 H        -0.124342        -0.923393         0.837068
 H        -0.216929         0.791600         1.022543
 H         2.567164         1.503577         1.124756
 H         2.835791        -0.050802         1.343962
 H         1.598969         1.786747        -1.501619
 H         1.648955         0.203726        -2.409779
 H         5.303243        -1.651642        -0.659263
 H         4.828356        -1.000925         0.918918
 H         3.315491        -1.581882        -1.895252
