19
Iteration:  2030charge 0 multiplicity 1
 C        -0.067465         0.021398         0.195010
 C         1.374575        -0.022123        -0.118980
 C         2.509112         0.558081         0.768044
 C         3.253839         0.299099        -0.671546
 C         1.982393         0.906179        -1.255958
 O         4.647787         0.311903        -0.846289
 C         4.634887        -1.107373        -0.370183
 C         3.123628        -1.196006        -0.979058
 O         1.787050        -1.399053        -0.444943
 H        -0.307528        -0.765900         0.801844
 H        -0.311151         1.061639         0.594161
 H        -0.517389        -0.034034        -0.813089
 H         2.408779         1.671145         0.862479
 H         2.962700         0.106286         1.688237
 H         1.700677         1.934290        -1.086316
 H         1.753185         0.702340        -2.259394
 H         5.242027        -1.822653        -0.836626
 H         4.645345        -1.071039         0.718957
 H         3.300599        -1.479555        -2.079164
