19
Iteration:  3454
 C        -0.077698         0.023974         0.336204
 C         1.356609         0.020401        -0.267222
 C         2.502685         0.426893         0.667471
 C         3.297064         0.393095        -0.718827
 C         1.922737         0.751161        -1.462170
 O         4.741600         0.387026        -0.824858
 C         4.582064        -1.006340        -0.294793
 C         3.176551        -1.097759        -0.942877
 O         1.767033        -1.443754        -0.331144
 H        -0.504626        -1.040176         0.239934
 H         0.002789         0.207070         1.431596
 H        -0.650637         0.857681        -0.018970
 H         2.397202         1.508778         0.962331
 H         2.591252        -0.220872         1.568728
 H         1.593942         1.764827        -1.610431
 H         1.669675         0.161997        -2.378594
 H         5.388746        -1.796436        -0.510881
 H         4.622824        -0.970256         0.793490
 H         3.201891        -1.274663        -2.059089
