19
Iteration:  4091charge 0 multiplicity 1
 C        -0.154574         0.022326         0.437003
 C         1.327339        -0.028140        -0.218507
 C         2.523284         0.570491         0.579946
 C         3.241043         0.389932        -0.752775
 C         1.882900         0.726940        -1.461806
 O         4.771750         0.308899        -0.780419
 C         4.658787        -1.086618        -0.209986
 C         3.151942        -1.064864        -0.886516
 O         1.820757        -1.415062        -0.526120
 H        -0.593639        -0.974529         0.035919
 H         0.060465         0.130653         1.567840
 H        -0.732965         0.978025         0.193860
 H         2.304322         1.573010         1.101549
 H         2.779267         0.024493         1.522092
 H         1.500357         1.744265        -1.455817
 H         1.675271         0.148674        -2.405881
 H         5.400198        -1.756137        -0.657394
 H         4.852883        -0.900762         0.836713
 H         3.276174        -1.207177        -1.951882
