19
Iteration:  2829
 C        -0.129411         0.016113         0.195637
 C         1.340805        -0.007716        -0.123036
 C         2.508561         0.505044         0.766980
 C         3.280054         0.384297        -0.570529
 C         1.885896         0.817366        -1.339356
 O         4.675375         0.324666        -0.907412
 C         4.608204        -1.111303        -0.370637
 C         3.175966        -1.119772        -0.880929
 O         1.878624        -1.399945        -0.470289
 H        -0.293187        -0.115718         1.256526
 H        -0.497244         1.026880        -0.169720
 H        -0.772440        -0.596355        -0.370758
 H         2.540019         1.563479         1.023960
 H         2.761937        -0.092506         1.622680
 H         1.568350         1.872885        -1.298921
 H         1.878539         0.443743        -2.399524
 H         5.421424        -1.694613        -0.839113
 H         4.744058        -1.166090         0.751423
 H         3.313188        -1.422846        -1.933212
