19
Iteration:  2742charge 0 multiplicity 1
 C        -0.099176        -0.120350         0.152789
 C         1.347423        -0.052170        -0.123162
 C         2.505955         0.674589         0.705009
 C         3.241622         0.424162        -0.657807
 C         1.974560         0.892461        -1.313315
 O         4.715680         0.263747        -0.811348
 C         4.584577        -1.143221        -0.345448
 C         3.139965        -1.119932        -0.934805
 O         1.804764        -1.415185        -0.405449
 H        -0.106987        -0.141563         1.257781
 H        -0.577193         0.859956        -0.159388
 H        -0.513475        -1.007040        -0.219028
 H         2.180875         1.697314         0.668011
 H         3.078800         0.378086         1.556435
 H         1.912673         1.964256        -1.050166
 H         1.608064         0.858072        -2.358689
 H         5.375227        -1.654771        -0.963161
 H         4.872697        -1.368510         0.704044
 H         3.070467        -1.410156        -2.024522
