19
Iteration:  2295charge 0 multiplicity 1
 C         0.014118         0.062374         0.257319
 C         1.335145        -0.074953        -0.272894
 C         2.515847         0.507996         0.718025
 C         3.263825         0.301070        -0.690089
 C         1.995355         0.883984        -1.266654
 O         4.701183         0.406945        -0.754498
 C         4.529093        -1.108619        -0.333414
 C         3.151978        -1.187944        -0.987109
 O         1.714023        -1.418199        -0.503528
 H        -0.009480        -0.107742         1.423685
 H        -0.278717         1.036711         0.105120
 H        -0.637956        -0.691840        -0.189750
 H         2.375645         1.624247         1.003155
 H         2.958833         0.066035         1.716481
 H         2.008119         1.960064        -1.072195
 H         1.631248         0.613749        -2.263590
 H         5.441440        -1.772316        -0.661331
 H         4.657841        -1.145608         0.740418
 H         3.108703        -1.587681        -2.044181
