19
Iteration:  3253
 C        -0.049709        -0.066339         0.329111
 C         1.341483         0.027659        -0.213744
 C         2.465167         0.603006         0.515142
 C         3.253045         0.371695        -0.769673
 C         1.819534         0.704749        -1.504118
 O         4.762605         0.286039        -0.746915
 C         4.590750        -1.049891        -0.233349
 C         3.183400        -1.075955        -0.956072
 O         1.833289        -1.330343        -0.286151
 H        -0.765519         0.024184        -0.401871
 H         0.014414        -1.019455         0.938243
 H        -0.146139         0.706978         1.108678
 H         2.450149         1.587413         1.011556
 H         2.744728         0.056170         1.417683
 H         1.586470         1.753665        -1.546573
 H         1.723597         0.241435        -2.511535
 H         5.281954        -1.685456        -0.704784
 H         4.576368        -1.108736         0.902957
 H         3.324902        -1.597154        -1.954400
