19
Iteration:  2700
 C        -0.097941         0.073141         0.081552
 C         1.401891        -0.039733        -0.138860
 C         2.538832         0.506468         0.739790
 C         3.234172         0.311043        -0.716465
 C         1.961744         0.766687        -1.368383
 O         4.679297         0.409033        -0.806405
 C         4.681810        -1.031267        -0.437996
 C         3.061453        -1.130680        -0.847951
 O         1.811462        -1.426878        -0.274975
 H        -0.491521        -0.653786         0.767642
 H        -0.335447         1.103545         0.537418
 H        -0.598938        -0.148807        -0.836221
 H         2.298706         1.423776         1.346321
 H         2.797625        -0.321946         1.400935
 H         1.773082         1.794043        -1.279254
 H         1.683685         0.285072        -2.306380
 H         5.332522        -1.653555        -1.008391
 H         4.822692        -1.127937         0.640515
 H         3.052825        -1.455135        -1.956259
