19
Iteration:  4975charge 0 multiplicity 1
 C        -0.092426         0.035156         0.072588
 C         1.361357        -0.113213        -0.158256
 C         2.532076         0.607033         0.739116
 C         3.247166         0.303732        -0.597444
 C         2.016735         0.863585        -1.422085
 O         4.630551         0.360457        -0.852080
 C         4.625515        -1.083787        -0.412618
 C         3.123298        -1.120439        -0.776153
 O         1.798900        -1.441514        -0.329922
 H        -0.698510        -0.781711        -0.278241
 H        -0.215920         0.024230         1.182513
 H        -0.573913         1.074728        -0.278268
 H         2.405555         1.711281         0.993734
 H         2.810242         0.172193         1.688228
 H         1.527505         1.892067        -1.301307
 H         2.132902         0.324164        -2.372796
 H         5.339366        -1.753621        -1.054278
 H         5.016345        -1.394748         0.627767
 H         3.186378        -1.453779        -1.894170
