19
Iteration:  1935
 C        -0.130655         0.066075         0.243714
 C         1.327583         0.003898        -0.161591
 C         2.498522         0.408797         0.750999
 C         3.236042         0.355142        -0.629415
 C         1.957076         0.829526        -1.317810
 O         4.794372         0.285257        -0.812483
 C         4.650887        -1.098752        -0.408989
 C         3.112632        -1.098375        -0.980306
 O         1.808653        -1.319745        -0.413376
 H        -0.382546        -0.486704         1.169860
 H        -0.677667         1.011254         0.225017
 H        -0.590831        -0.634642        -0.583350
 H         2.637163         1.437473         1.015279
 H         2.560736        -0.340126         1.485927
 H         1.691446         1.896381        -1.216661
 H         1.684234         0.527171        -2.397449
 H         5.326746        -1.740857        -0.971696
 H         4.842884        -0.989927         0.676442
 H         3.008631        -1.297537        -2.007158
