19
Iteration:  1021charge 0 multiplicity 1
 C        -0.073637         0.095930         0.311369
 C         1.356197        -0.091471        -0.244836
 C         2.614569         0.440673         0.745408
 C         3.247239         0.363318        -0.631826
 C         1.879454         0.914817        -1.297722
 O         4.643650         0.318338        -0.762769
 C         4.672722        -1.163587        -0.313473
 C         3.145456        -1.072485        -0.971676
 O         1.773365        -1.415003        -0.572125
 H        -0.490225        -0.448673         1.123527
 H        -0.044978         1.004278         0.830685
 H        -0.848413         0.100677        -0.558547
 H         2.477097         1.470097         0.888115
 H         2.893135        -0.275049         1.435534
 H         1.661373         2.025347        -1.204842
 H         1.629163         0.709791        -2.340108
 H         5.383497        -1.777500        -0.887219
 H         4.910313        -1.414618         0.740185
 H         3.219407        -1.273752        -2.099664
