19
Iteration:  2272charge 0 multiplicity 1
 C        -0.130437         0.033801         0.266205
 C         1.306626         0.012220        -0.169318
 C         2.544028         0.442818         0.713552
 C         3.232675         0.395175        -0.683695
 C         1.993403         0.959038        -1.423542
 O         4.667624         0.217543        -0.786967
 C         4.611651        -1.113919        -0.334257
 C         3.140366        -1.034529        -0.948647
 O         1.872591        -1.425202        -0.432358
 H        -0.386309        -0.577285         1.176687
 H        -0.468785         1.018665         0.441462
 H        -0.633043        -0.442134        -0.627583
 H         2.451123         1.491329         1.195182
 H         2.831690        -0.249205         1.598344
 H         1.653799         1.918899        -1.120172
 H         1.732723         0.761518        -2.473048
 H         5.243969        -1.968720        -0.760302
 H         4.876823        -1.134447         0.735245
 H         3.244991        -1.407672        -1.964087
