19
Iteration:  1085charge 0 multiplicity 1
 C        -0.089149        -0.084278         0.127349
 C         1.397416        -0.005431        -0.167013
 C         2.577390         0.567292         0.827804
 C         3.270896         0.421253        -0.619563
 C         1.924238         1.011770        -1.308267
 O         4.782426         0.219370        -0.733469
 C         4.547346        -1.205984        -0.519042
 C         3.092769        -1.040489        -0.987866
 O         1.758349        -1.394914        -0.395065
 H        -0.363373        -0.290621         1.192816
 H        -0.557912         0.855628        -0.127407
 H        -0.569357        -1.037637        -0.460880
 H         2.395179         1.586499         1.140319
 H         2.907125         0.067449         1.754140
 H         1.772878         2.101313        -0.834902
 H         1.598126         0.668119        -2.342285
 H         5.115448        -1.826582        -1.256556
 H         4.851080        -1.472115         0.537126
 H         3.119669        -1.387789        -2.044645
