19
Iteration:  3487charge 0 multiplicity 1
 C        -0.176597        -0.045254         0.196019
 C         1.323958         0.010793        -0.131823
 C         2.542100         0.632499         0.595170
 C         3.293436         0.341472        -0.697115
 C         1.953313         0.853226        -1.353793
 O         4.648481         0.336533        -0.778401
 C         4.664272        -1.117833        -0.415464
 C         3.110316        -1.134408        -0.839762
 O         1.896080        -1.499183        -0.286056
 H        -0.816142        -0.879079        -0.255696
 H        -0.486282         0.047151         1.268458
 H        -0.622841         0.816158        -0.255429
 H         2.491750         1.763320         0.525386
 H         2.680828         0.352808         1.654274
 H         1.746806         1.872455        -1.148833
 H         1.605443         0.562691        -2.392579
 H         5.108428        -1.636744        -1.343435
 H         5.338245        -0.998560         0.437694
 H         3.282951        -1.367333        -1.947219
