19
Iteration:  2765
 C        -0.047731        -0.064928         0.331401
 C         1.343588         0.020952        -0.166390
 C         2.529928         0.600015         0.665410
 C         3.243820         0.429374        -0.651063
 C         1.917154         0.821606        -1.423349
 O         4.738908         0.283067        -0.710982
 C         4.552819        -1.174229        -0.360285
 C         3.100234        -1.058943        -0.974650
 O         1.873043        -1.391538        -0.474969
 H        -0.135700         0.060930         1.385402
 H        -0.670704         0.732603        -0.216090
 H        -0.394580        -1.041812         0.074516
 H         2.334976         1.638817         0.948144
 H         2.613648        -0.148092         1.397949
 H         1.614207         1.849347        -1.466750
 H         1.711700         0.400348        -2.406773
 H         5.390651        -1.750830        -0.705307
 H         4.558634        -1.253979         0.753052
 H         3.082527        -1.211880        -2.101446
