19
Iteration:  3056charge 0 multiplicity 1
 C        -0.171439         0.034655         0.124477
 C         1.319076        -0.067077        -0.158066
 C         2.477146         0.465822         0.742410
 C         3.244138         0.374958        -0.627132
 C         1.924128         0.862364        -1.333789
 O         4.846621         0.378206        -0.849960
 C         4.644682        -1.082523        -0.459727
 C         3.133026        -1.099718        -0.906465
 O         1.810056        -1.425656        -0.303492
 H        -0.156239         0.067393         1.257865
 H        -0.774209         0.973394        -0.180589
 H        -0.606037        -0.904994        -0.210598
 H         2.383702         1.636235         0.881961
 H         2.836427        -0.122452         1.621832
 H         1.694553         1.925855        -1.189911
 H         1.801503         0.262526        -2.290516
 H         5.230524        -1.853844        -0.946575
 H         4.725708        -1.206985         0.641648
 H         3.082332        -1.453053        -1.969157
