19
Iteration:  2598charge 0 multiplicity 1
 C        -0.158752        -0.063592         0.272157
 C         1.343851         0.031774        -0.201886
 C         2.463242         0.617040         0.659932
 C         3.294801         0.381771        -0.685480
 C         1.911242         0.831897        -1.394795
 O         4.751482         0.240783        -0.805246
 C         4.583969        -1.148867        -0.345527
 C         3.155546        -1.063831        -0.937083
 O         1.879853        -1.390074        -0.372664
 H        -0.121834        -0.496120         1.322362
 H        -0.289982         0.990671         0.323169
 H        -0.935830        -0.488830        -0.420416
 H         2.220301         1.614918         0.919646
 H         2.773076         0.017781         1.550704
 H         1.696408         1.956798        -1.284760
 H         1.505199         0.479747        -2.360714
 H         5.569135        -1.703037        -0.614181
 H         4.664040        -1.072918         0.748354
 H         3.264276        -1.522699        -2.008532
