19
Iteration:  3347charge 0 multiplicity 1
 C        -0.093339        -0.001119         0.033828
 C         1.361885        -0.040777        -0.104953
 C         2.530871         0.708270         0.636459
 C         3.217941         0.285078        -0.685331
 C         1.878833         0.760139        -1.304278
 O         4.623875         0.378085        -0.874204
 C         4.696063        -1.097219        -0.370426
 C         3.145501        -1.216147        -0.873149
 O         1.876988        -1.430252        -0.190815
 H        -0.652093         0.497132        -0.857488
 H        -0.618906        -1.018899         0.303896
 H        -0.226077         0.674055         0.888376
 H         2.542614         1.857869         0.745547
 H         2.843363         0.485053         1.670712
 H         1.829987         1.858440        -1.331871
 H         1.566770         0.321994        -2.352444
 H         5.420272        -1.530125        -1.095146
 H         4.969460        -1.071459         0.704106
 H         3.026220        -1.599603        -1.872932
