19
Iteration:  4618
 C        -0.147746        -0.041043         0.239489
 C         1.363970         0.060704        -0.176881
 C         2.512803         0.589420         0.607451
 C         3.258714         0.312824        -0.670823
 C         1.938794         0.815371        -1.402252
 O         4.653810         0.314880        -0.807529
 C         4.761827        -1.091816        -0.344169
 C         3.099205        -1.128245        -0.780569
 O         1.814936        -1.391233        -0.402003
 H        -0.818455        -0.027900        -0.585160
 H        -0.184173        -0.986714         0.723439
 H        -0.438576         0.712542         0.978245
 H         2.454979         1.718102         0.699102
 H         2.883072         0.164317         1.538306
 H         1.654395         1.852337        -1.364730
 H         1.728557         0.405394        -2.363443
 H         5.235186        -1.704920        -1.037552
 H         4.961751        -1.131359         0.655350
 H         3.141112        -1.561338        -1.816284
