19
Iteration:    94
 C        -0.116782         0.092023         0.196757
 C         1.338452        -0.063149        -0.083972
 C         2.592112         0.445378         0.802071
 C         3.245220         0.340843        -0.717258
 C         1.894748         0.876222        -1.265416
 O         4.715968         0.339942        -0.866059
 C         4.719990        -1.072772        -0.418978
 C         3.116604        -1.152868        -0.844942
 O         1.737892        -1.389314        -0.507962
 H        -0.280569        -0.110921         1.287870
 H        -0.624325         1.126201        -0.055301
 H        -0.699065        -0.575504        -0.575729
 H         2.731263         1.493190         1.175064
 H         2.825207        -0.442120         1.441936
 H         1.628193         1.918103        -0.804208
 H         1.608185         0.688919        -2.330553
 H         5.190220        -1.732008        -1.159747
 H         5.238745        -1.194673         0.612000
 H         3.203205        -1.544873        -1.888806
