19
Iteration:  1515
 C        -0.028414         0.037976         0.353792
 C         1.388668        -0.046228        -0.206336
 C         2.515737         0.506461         0.661050
 C         3.222430         0.359604        -0.637591
 C         1.941647         0.970552        -1.336876
 O         4.629590         0.335397        -0.694564
 C         4.589731        -1.191874        -0.433046
 C         3.145664        -1.156291        -1.003675
 O         1.851571        -1.411626        -0.511942
 H        -0.235451        -0.223273         1.425791
 H        -0.508649         1.021908         0.446058
 H        -0.707267        -0.616824        -0.227769
 H         2.391727         1.509901         1.015872
 H         2.810102        -0.125570         1.484986
 H         1.850261         2.061626        -1.040535
 H         1.854883         0.706335        -2.469976
 H         5.324657        -1.847094        -0.965560
 H         4.618961        -1.343822         0.669648
 H         3.165803        -1.263621        -2.066446
