19
Iteration:   711charge 0 multiplicity 1
 C        -0.076612        -0.056858         0.292369
 C         1.351620         0.059102        -0.150586
 C         2.495738         0.631552         0.754960
 C         3.265637         0.328864        -0.646007
 C         1.939503         0.888082        -1.295962
 O         4.706859         0.274092        -0.750713
 C         4.610435        -1.196207        -0.413552
 C         3.136267        -1.102831        -1.001499
 O         1.805528        -1.368939        -0.550777
 H         0.045035        -0.608519         1.342999
 H        -0.499382         1.030534         0.467100
 H        -0.555582        -0.814980        -0.310898
 H         2.433171         1.654362         1.043761
 H         2.742030        -0.071318         1.551382
 H         1.828532         1.975887        -1.180950
 H         1.649923         0.577872        -2.346515
 H         5.267349        -1.735047        -1.118829
 H         4.661230        -1.321007         0.742681
 H         3.127101        -1.364730        -2.107855
