19
Iteration:  2235
 C        -0.025384        -0.009628         0.127315
 C         1.422207        -0.020986        -0.171258
 C         2.509826         0.652521         0.746006
 C         3.246501         0.340785        -0.631099
 C         1.953869         0.872121        -1.292543
 O         4.664218         0.263057        -0.730909
 C         4.607388        -1.181794        -0.490667
 C         3.059952        -1.126787        -0.938645
 O         1.792989        -1.397042        -0.337694
 H        -0.283049        -1.043237         0.315361
 H        -0.558467         0.701543         0.921081
 H        -0.473316         0.176671        -0.890576
 H         2.459694         1.718116         0.791118
 H         2.938961         0.231568         1.638429
 H         1.844811         2.001551        -1.168477
 H         1.712965         0.614566        -2.326602
 H         5.258357        -1.643416        -1.187716
 H         4.927146        -1.239668         0.589887
 H         3.131309        -1.269863        -2.024940
