19
Iteration:  3426
 C        -0.086385         0.011323         0.350895
 C         1.425687        -0.101873        -0.155177
 C         2.555503         0.607828         0.608438
 C         3.211415         0.342367        -0.811523
 C         1.871638         0.904543        -1.466342
 O         4.615791         0.299102        -0.768414
 C         4.625342        -1.041910        -0.217121
 C         3.247400        -1.167318        -0.892796
 O         1.816632        -1.477841        -0.451510
 H        -0.691276        -0.776355        -0.054937
 H         0.091237         0.041115         1.470583
 H        -0.519866         0.989032        -0.004392
 H         2.199884         1.634793         0.535168
 H         2.984853         0.284891         1.546062
 H         1.676520         1.947826        -1.180363
 H         1.404030         0.632885        -2.463857
 H         5.375938        -1.702231        -0.597507
 H         4.565440        -0.973504         0.915507
 H         3.356543        -1.462557        -1.908274
