19
Iteration:  1336charge 0 multiplicity 1
 C        -0.042292        -0.107222         0.316041
 C         1.370118        -0.006779        -0.135500
 C         2.622096         0.577375         0.661957
 C         3.284193         0.426897        -0.673067
 C         2.013531         0.892420        -1.350263
 O         4.710921         0.259569        -0.707325
 C         4.510336        -1.137087        -0.404437
 C         3.081887        -1.100296        -0.959796
 O         1.757523        -1.348049        -0.514051
 H        -0.077654        -0.858250         1.156547
 H        -0.494818         0.863460         0.560988
 H        -0.831900        -0.511944        -0.476432
 H         2.352251         1.653235         0.937626
 H         2.675328        -0.070525         1.569964
 H         1.785541         2.022243        -1.356373
 H         1.730735         0.387510        -2.327290
 H         5.225363        -1.838630        -0.905007
 H         4.533446        -1.262270         0.707919
 H         3.101135        -1.086627        -2.046412
