19
Iteration:  2019
 C        -0.095910         0.006710         0.216071
 C         1.380026         0.019573        -0.157630
 C         2.572337         0.605078         0.722475
 C         3.212343         0.324769        -0.677952
 C         1.937225         0.893860        -1.297578
 O         4.661933         0.250143        -0.821204
 C         4.617933        -1.140797        -0.365804
 C         3.158176        -1.117430        -0.856484
 O         1.807054        -1.392756        -0.534568
 H        -0.255225        -0.832335         0.780487
 H        -0.428034         0.825468         0.953091
 H        -0.870142        -0.084627        -0.568603
 H         2.400745         1.647295         1.083361
 H         2.877484        -0.078849         1.560521
 H         1.968349         1.959287        -1.143942
 H         1.564212         0.500092        -2.177072
 H         5.436862        -1.622322        -0.830693
 H         4.805697        -1.225070         0.718756
 H         3.178845        -1.485026        -1.948232
