19
Iteration:  4077charge 0 multiplicity 1
 C        -0.010908         0.003825         0.381870
 C         1.351809        -0.025597        -0.196932
 C         2.486893         0.628207         0.624643
 C         3.239896         0.334234        -0.682743
 C         1.872351         0.777851        -1.442379
 O         4.678648         0.344071        -0.773041
 C         4.611299        -1.043184        -0.278965
 C         3.219255        -1.166615        -0.916404
 O         1.816475        -1.439858        -0.502268
 H        -0.737032        -0.756832         0.091456
 H        -0.074540        -0.003750         1.496188
 H        -0.546316         0.940399         0.125974
 H         2.324362         1.739879         0.615420
 H         2.844995         0.186184         1.563912
 H         1.695181         1.806575        -1.450204
 H         1.696140         0.454257        -2.450237
 H         5.407838        -1.615732        -0.667597
 H         4.538283        -1.244179         0.878680
 H         3.252489        -1.656647        -1.932951
