19
Iteration:  3772
 C        -0.108701        -0.063200         0.408872
 C         1.317250        -0.010437        -0.231520
 C         2.530085         0.633045         0.564685
 C         3.221834         0.404208        -0.808344
 C         1.833734         0.764831        -1.488278
 O         4.796027         0.217021        -0.801906
 C         4.552239        -1.091541        -0.172991
 C         3.199370        -1.059377        -0.922618
 O         1.885145        -1.350688        -0.370220
 H        -0.856343         0.031565        -0.355598
 H        -0.007463        -1.025488         1.022977
 H        -0.183835         0.958519         0.950295
 H         2.349277         1.694134         0.877434
 H         2.996375         0.098422         1.470678
 H         1.345845         1.776106        -1.619344
 H         1.716490         0.437936        -2.498473
 H         5.316363        -1.700575        -0.598032
 H         4.381093        -1.174175         0.965936
 H         3.068917        -1.464924        -1.923353
