19
Iteration:   598
 C        -0.004187         0.081305         0.138088
 C         1.399188        -0.017108        -0.109928
 C         2.525445         0.422607         0.850393
 C         3.233482         0.314264        -0.684712
 C         2.004507         0.891650        -1.309291
 O         4.610707         0.332956        -0.823718
 C         4.567038        -1.093787        -0.485873
 C         3.106803        -1.118205        -1.009684
 O         1.804838        -1.388876        -0.336084
 H        -0.240593        -0.942001         0.602593
 H        -0.308322         0.861230         0.841630
 H        -0.732625         0.117927        -0.790757
 H         2.389566         1.510074         1.077078
 H         2.941929        -0.193180         1.683756
 H         1.782073         1.952141        -1.144217
 H         1.818693         0.548266        -2.318559
 H         5.559361        -1.563262        -0.891804
 H         4.622198        -1.218951         0.626013
 H         3.097283        -1.521304        -2.055812
