19
Iteration:  1015charge 0 multiplicity 1
 C        -0.102971         0.131960         0.296788
 C         1.392433        -0.078770        -0.217834
 C         2.618688         0.441861         0.768527
 C         3.218829         0.319827        -0.643073
 C         1.887101         0.888297        -1.329495
 O         4.649923         0.330892        -0.762700
 C         4.639360        -1.140333        -0.333056
 C         3.154299        -1.085437        -0.979047
 O         1.790233        -1.418621        -0.590660
 H        -0.505233        -0.659208         1.033791
 H        -0.072203         1.039896         1.017602
 H        -0.896466         0.182796        -0.393465
 H         2.601695         1.555795         1.051809
 H         3.012362        -0.254495         1.590461
 H         1.675680         1.933154        -1.153613
 H         1.756306         0.514349        -2.365504
 H         5.463961        -1.646121        -0.854572
 H         4.580115        -1.415737         0.743008
 H         3.215065        -1.155011        -2.038391
