19
Iteration:  3387charge 0 multiplicity 1
 C        -0.143633        -0.079241         0.244368
 C         1.305342         0.017589        -0.196311
 C         2.530533         0.581813         0.681815
 C         3.207659         0.365473        -0.732964
 C         1.983296         0.801472        -1.543415
 O         4.661802         0.318191        -0.829905
 C         4.634127        -1.115490        -0.339251
 C         3.170337        -1.023571        -0.853719
 O         1.897730        -1.359678        -0.218019
 H        -0.849247        -0.425181        -0.554768
 H        -0.415980        -0.782872         0.927586
 H        -0.473416         0.874645         0.686524
 H         2.392913         1.570967         1.092545
 H         2.861081        -0.060247         1.548538
 H         1.737908         1.855559        -1.838111
 H         1.778358         0.103741        -2.282085
 H         5.235293        -1.877552        -0.931221
 H         4.856872        -1.366830         0.682428
 H         3.243486        -1.372578        -1.946509
