19
Iteration:  2712
 C        -0.121258         0.011898         0.075206
 C         1.323979         0.071492        -0.118022
 C         2.516532         0.378909         0.773117
 C         3.218570         0.386461        -0.680776
 C         1.944711         0.837099        -1.400977
 O         4.739267         0.390334        -0.851332
 C         4.600507        -1.075377        -0.395642
 C         3.146199        -1.152285        -0.912322
 O         1.841845        -1.391718        -0.227105
 H        -0.171025        -0.563739         0.953261
 H        -0.640804         1.027961         0.179303
 H        -0.646239        -0.472716        -0.753588
 H         2.585301         1.492479         1.103479
 H         2.868666        -0.312879         1.573076
 H         1.726389         1.846632        -1.479806
 H         1.712396         0.414941        -2.376846
 H         5.286879        -1.544715        -1.003451
 H         4.893279        -1.261803         0.641749
 H         3.106044        -1.672443        -1.921947
