19
Iteration:  4678
 C        -0.109808         0.016466         0.084077
 C         1.353210        -0.087937        -0.086143
 C         2.471045         0.679806         0.728035
 C         3.203727         0.326654        -0.718219
 C         1.948214         0.848131        -1.373186
 O         4.643129         0.357963        -0.849385
 C         4.694145        -1.114438        -0.392075
 C         3.127541        -1.194232        -0.863915
 O         1.888524        -1.421041        -0.267789
 H        -0.638686         0.161191        -0.916490
 H        -0.655896        -0.840063         0.606447
 H        -0.262356         0.933817         0.650487
 H         2.427402         1.718496         0.843536
 H         2.871774         0.144868         1.593255
 H         1.834543         1.939664        -1.158778
 H         1.613380         0.497382        -2.386906
 H         5.395092        -1.799581        -0.904710
 H         5.047773        -1.468155         0.636521
 H         3.171854        -1.548288        -1.885936
