19
Iteration:  3095charge 0 multiplicity 1
 C         0.013840        -0.014735         0.322653
 C         1.367811        -0.013405        -0.233591
 C         2.555258         0.511792         0.649888
 C         3.231699         0.330276        -0.758923
 C         1.893635         0.855524        -1.412482
 O         4.683205         0.368866        -0.754420
 C         4.555578        -1.052607        -0.243413
 C         3.186136        -1.149293        -0.907866
 O         1.764405        -1.421209        -0.460677
 H        -0.080839        -0.648804         1.222273
 H        -0.290455         0.947796         0.538785
 H        -0.731581        -0.483763        -0.346607
 H         2.348234         1.528712         0.767172
 H         2.971367        -0.028884         1.512364
 H         1.654922         1.920860        -1.315322
 H         1.657921         0.695596        -2.410920
 H         5.331170        -1.765577        -0.673177
 H         4.618304        -1.039625         0.829291
 H         3.279005        -1.475187        -1.941205
