19
Iteration:  1689
 C        -0.077462         0.004316         0.244731
 C         1.359150        -0.036349        -0.131785
 C         2.509314         0.471808         0.714226
 C         3.280575         0.307128        -0.693967
 C         1.972266         0.951561        -1.258786
 O         4.733733         0.338132        -0.784677
 C         4.550836        -1.127075        -0.417032
 C         3.143416        -1.157412        -1.006962
 O         1.791806        -1.366050        -0.462030
 H        -0.166512        -0.154425         1.439091
 H        -0.638378         0.898297         0.008055
 H        -0.709671        -0.830462        -0.131854
 H         2.421235         1.531824         1.089109
 H         2.609112        -0.299636         1.502891
 H         1.722647         2.000909        -0.970851
 H         1.741406         0.996047        -2.354306
 H         5.454212        -1.684472        -0.848041
 H         4.629439        -1.216970         0.663677
 H         3.242378        -1.339286        -2.120392
