19
Iteration:  3405
 C        -0.068362        -0.055577         0.283577
 C         1.362572         0.017594        -0.175230
 C         2.502235         0.652088         0.598458
 C         3.240510         0.373425        -0.710775
 C         1.905980         0.742140        -1.426145
 O         4.738415         0.356497        -0.781852
 C         4.604883        -1.061859        -0.313341
 C         3.083844        -1.200598        -0.891101
 O         1.812525        -1.404527        -0.370853
 H        -0.557098        -0.669202        -0.426947
 H         0.051407        -0.524477         1.315299
 H        -0.497746         0.978248         0.366933
 H         2.500751         1.745635         0.686556
 H         2.774381         0.002833         1.430438
 H         1.660685         1.802056        -1.285655
 H         1.840679         0.450053        -2.489350
 H         5.476152        -1.548902        -0.706364
 H         4.773978        -1.050040         0.806111
 H         3.147751        -1.599497        -1.899124
