19
Iteration:  3789charge 0 multiplicity 1
 C        -0.027005        -0.026680         0.274420
 C         1.418995         0.000777        -0.115900
 C         2.567598         0.705113         0.634091
 C         3.239849         0.357528        -0.732495
 C         1.838568         0.753857        -1.465586
 O         4.693025         0.294748        -0.820494
 C         4.548423        -1.113638        -0.255040
 C         3.107826        -1.116160        -0.888999
 O         1.847710        -1.384876        -0.397483
 H        -0.539820        -0.371932        -0.692565
 H        -0.154676        -0.846404         0.982898
 H        -0.290535         0.801511         0.854099
 H         2.396177         1.769011         0.741032
 H         2.727826         0.160827         1.525789
 H         1.682836         1.807078        -1.529674
 H         1.478678         0.085134        -2.306912
 H         5.334698        -1.864985        -0.615494
 H         4.648475        -0.964176         0.798934
 H         3.303423        -1.436270        -1.937566
