19
Iteration:   693charge 0 multiplicity 1
 C        -0.110234        -0.119518         0.407167
 C         1.323087         0.009346        -0.172270
 C         2.475103         0.525266         0.662690
 C         3.285564         0.409787        -0.634811
 C         1.937516         1.019795        -1.388739
 O         4.752385         0.200958        -0.701708
 C         4.605726        -1.213241        -0.478050
 C         3.141331        -1.042121        -1.014598
 O         1.843078        -1.341788        -0.455035
 H        -0.230652        -0.292238         1.401686
 H        -0.685559         0.733740         0.232970
 H        -0.717675        -0.877742        -0.170884
 H         2.370959         1.633579         0.544340
 H         2.764364         0.071635         1.618723
 H         1.692869         2.032652        -1.184026
 H         1.924030         0.780453        -2.493151
 H         5.352528        -1.911041        -0.776514
 H         4.496276        -1.421881         0.577748
 H         3.182112        -1.144353        -2.078904
