19
Iteration:   759charge 0 multiplicity 1
 C        -0.152674         0.144814         0.218857
 C         1.324045         0.077078        -0.142479
 C         2.497762         0.406997         0.755704
 C         3.229010         0.274168        -0.694535
 C         1.957708         0.885886        -1.248057
 O         4.689058         0.366694        -0.827286
 C         4.592682        -1.104234        -0.459080
 C         3.168248        -1.166272        -0.943155
 O         1.935853        -1.502917        -0.401750
 H        -0.621067        -0.679039         0.641240
 H        -0.219068         1.009544         0.824872
 H        -0.542066         0.256339        -0.865440
 H         2.332852         1.563907         0.893918
 H         2.629819        -0.359095         1.582763
 H         1.709987         1.888218        -0.830365
 H         1.613830         0.743072        -2.282957
 H         5.421466        -1.580058        -1.024831
 H         4.698145        -1.184947         0.637900
 H         3.150194        -1.281704        -2.019098
