19
Iteration:   407
 C        -0.112562        -0.005734         0.244285
 C         1.347470         0.009311        -0.124566
 C         2.628099         0.534502         0.743843
 C         3.263199         0.370537        -0.733202
 C         1.935630         0.897251        -1.336437
 O         4.772792         0.331676        -0.636059
 C         4.534837        -1.196583        -0.509736
 C         3.116288        -1.122532        -0.988560
 O         1.794922        -1.388282        -0.452646
 H        -0.415379        -1.009122         0.674370
 H        -0.213853         0.837186         1.040090
 H        -0.781753        -0.006681        -0.641655
 H         2.457959         1.669765         0.929937
 H         2.801835         0.041145         1.770369
 H         1.384393         1.943374        -1.161482
 H         1.845515         0.634291        -2.408585
 H         5.188649        -1.799542        -1.139708
 H         4.607261        -1.445845         0.599780
 H         3.061294        -1.374551        -2.049170
