19
Iteration:  4809
 C        -0.160243         0.018352         0.134429
 C         1.323334        -0.067905        -0.137681
 C         2.452864         0.572628         0.668334
 C         3.234367         0.414342        -0.722007
 C         2.041612         0.870912        -1.383879
 O         4.684032         0.302413        -0.852100
 C         4.711274        -1.091239        -0.393778
 C         3.106079        -1.127161        -0.839674
 O         1.863216        -1.448183        -0.238879
 H        -0.713372        -0.627290        -0.621331
 H        -0.445433        -0.319574         1.129984
 H        -0.466176         0.995388        -0.089251
 H         2.261300         1.508480         1.036381
 H         2.930776         0.093154         1.495155
 H         1.655638         1.793768        -0.986392
 H         1.918663         0.720730        -2.454075
 H         5.240693        -1.782835        -1.030202
 H         4.937398        -1.203314         0.674625
 H         2.985059        -1.502610        -1.863745
