19
Iteration:   676charge 0 multiplicity 1
 C        -0.044849        -0.105169         0.321366
 C         1.357047        -0.034048        -0.174843
 C         2.544386         0.591878         0.685642
 C         3.231031         0.449380        -0.730045
 C         2.029326         0.968465        -1.395241
 O         4.791436         0.298269        -0.668101
 C         4.421475        -1.207720        -0.411264
 C         3.069120        -1.050565        -1.022834
 O         1.824227        -1.415902        -0.421634
 H         0.128171        -0.215920         1.483631
 H        -0.715691         0.800073         0.089173
 H        -0.650466        -0.927512        -0.102543
 H         2.303852         1.479867         1.291572
 H         2.879231        -0.242781         1.342891
 H         1.715585         2.015948        -1.076403
 H         1.734329         0.714018        -2.385741
 H         5.127495        -1.721992        -1.187063
 H         4.779548        -1.633924         0.578291
 H         3.129000        -1.304164        -2.131285
