19
Iteration:  3401
 C        -0.123543        -0.054592         0.288604
 C         1.374828         0.033158        -0.169181
 C         2.509287         0.619268         0.634684
 C         3.253272         0.387895        -0.719538
 C         1.927465         0.722011        -1.471510
 O         4.715338         0.343763        -0.782731
 C         4.589957        -1.070902        -0.336455
 C         3.129124        -1.177237        -0.861216
 O         1.835529        -1.369378        -0.348168
 H        -0.664451        -0.618096        -0.545237
 H         0.092001        -0.598504         1.267452
 H        -0.587369         0.912304         0.428687
 H         2.467724         1.716920         0.765999
 H         2.791616        -0.066880         1.432502
 H         1.649600         1.774117        -1.351893
 H         1.819947         0.382339        -2.562305
 H         5.416871        -1.624253        -0.837956
 H         4.706252        -1.017305         0.750116
 H         3.137563        -1.539029        -1.894928
