19
Iteration:   976charge 0 multiplicity 1
 C        -0.094636        -0.028848         0.226058
 C         1.301317        -0.011868        -0.191950
 C         2.574144         0.502431         0.725770
 C         3.204650         0.374460        -0.643014
 C         1.982287         0.975329        -1.350487
 O         4.685961         0.278403        -0.746917
 C         4.568355        -1.204852        -0.463634
 C         3.164033        -1.105007        -0.954912
 O         1.824774        -1.357098        -0.395249
 H        -0.183760        -1.008973         0.648274
 H        -0.052998         0.559746         1.107450
 H        -0.845806         0.255052        -0.616543
 H         2.515352         1.520753         0.996288
 H         2.911038        -0.238548         1.450320
 H         1.574077         2.019223        -1.004942
 H         1.772893         1.076000        -2.425531
 H         5.375312        -1.812064        -0.881092
 H         4.767793        -1.355977         0.629348
 H         3.159121        -1.352023        -2.063106
