19
Iteration:   487
 C        -0.107798         0.080064         0.236630
 C         1.330309         0.002221        -0.238779
 C         2.606130         0.435471         0.742759
 C         3.249361         0.333841        -0.640163
 C         1.907151         0.943941        -1.200197
 O         4.711606         0.316305        -0.781845
 C         4.589623        -1.125344        -0.409322
 C         3.149654        -1.172569        -1.019122
 O         1.795345        -1.407716        -0.458783
 H        -0.190757         0.077164         1.279329
 H        -0.510115         1.006661        -0.114402
 H        -0.772256        -0.577853        -0.423284
 H         2.612114         1.462736         1.191053
 H         2.969062        -0.273012         1.517602
 H         1.612719         1.854205        -0.840009
 H         1.607731         0.755539        -2.242823
 H         5.322991        -1.770913        -0.979327
 H         4.858899        -1.232218         0.632913
 H         3.253385        -1.389380        -2.094939
