19
Iteration:   627charge 0 multiplicity 1
 C        -0.219487         0.130889         0.214074
 C         1.284808        -0.062369        -0.156856
 C         2.527138         0.422244         0.822560
 C         3.291226         0.346883        -0.648910
 C         1.924680         0.971324        -1.268345
 O         4.751609         0.332855        -0.903177
 C         4.657895        -1.148043        -0.464520
 C         3.194896        -1.096164        -0.855825
 O         1.819069        -1.486896        -0.470996
 H        -0.266094        -0.472519         1.041546
 H        -0.482417         1.129602         0.449801
 H        -0.943472        -0.116627        -0.538672
 H         2.361540         1.500545         1.008999
 H         2.873220        -0.092119         1.752776
 H         1.611464         1.956369        -1.052060
 H         1.794145         0.665500        -2.345472
 H         5.286022        -1.785212        -0.989921
 H         5.022912        -1.171610         0.522796
 H         3.248851        -1.506883        -1.834052
