19
Iteration:  4725
 C        -0.024743         0.004811         0.321988
 C         1.413181        -0.028407        -0.155784
 C         2.488520         0.531477         0.630279
 C         3.238614         0.349284        -0.720046
 C         1.925849         0.899190        -1.450860
 O         4.612453         0.314163        -0.777931
 C         4.593792        -1.081752        -0.262579
 C         3.167151        -1.139741        -0.920974
 O         1.852681        -1.430176        -0.439400
 H        -0.687009        -0.724583        -0.168617
 H        -0.106048        -0.089358         1.398801
 H        -0.451100         1.008590         0.051742
 H         2.232269         1.612658         0.595694
 H         2.725783         0.078919         1.566280
 H         1.786264         2.000895        -1.428387
 H         1.782571         0.442607        -2.447419
 H         5.352945        -1.809670        -0.559646
 H         4.553254        -1.144567         0.812537
 H         3.309943        -1.515766        -1.909785
