19
Iteration:   331
 C        -0.022607         0.024830         0.169083
 C         1.366849        -0.016321        -0.107476
 C         2.580564         0.445315         0.788066
 C         3.216541         0.341375        -0.682049
 C         1.930116         0.960375        -1.308232
 O         4.638337         0.296393        -0.758202
 C         4.600887        -1.139685        -0.380346
 C         3.119055        -1.106808        -0.970297
 O         1.791103        -1.371595        -0.498527
 H        -0.048851        -0.537551         1.116152
 H        -0.404957         1.044575         0.506695
 H        -0.543699        -0.419281        -0.683082
 H         2.700400         1.524042         1.210587
 H         3.003038        -0.221763         1.648079
 H         1.648155         2.063282        -1.339057
 H         1.528625         0.790719        -2.271374
 H         5.152541        -1.728792        -1.112693
 H         4.957023        -1.465390         0.632765
 H         3.203779        -1.530733        -1.966606
