19
Iteration:  2366charge 0 multiplicity 1
 C        -0.127101        -0.088171         0.135338
 C         1.444088         0.064216        -0.080635
 C         2.572660         0.643364         0.748086
 C         3.214126         0.347791        -0.635486
 C         2.065584         0.920197        -1.358369
 O         4.600658         0.288821        -0.759435
 C         4.559486        -1.198090        -0.461027
 C         3.130090        -1.104319        -0.949686
 O         1.843024        -1.436607        -0.386470
 H        -0.354426        -0.386496         1.094948
 H        -0.673218         0.974790         0.176014
 H        -0.724167        -0.820472        -0.488826
 H         2.248555         1.631254         0.840789
 H         2.922304         0.255413         1.627271
 H         2.026955         1.994439        -1.161656
 H         1.753565         0.541146        -2.368159
 H         5.126551        -1.905403        -0.961519
 H         4.811460        -1.314873         0.612673
 H         3.027700        -1.203021        -2.072173
