19
Iteration:  2121charge 0 multiplicity 1
 C        -0.053695        -0.065677         0.299280
 C         1.365278         0.103876        -0.221361
 C         2.470786         0.501918         0.666527
 C         3.233278         0.410002        -0.683281
 C         1.989134         0.942623        -1.398319
 O         4.680157         0.248559        -0.695332
 C         4.523149        -1.213347        -0.417756
 C         3.154760        -1.047026        -0.906808
 O         1.876222        -1.404267        -0.425536
 H        -0.060401        -0.156889         1.472629
 H        -0.600444         0.801715         0.027538
 H        -0.671541        -0.895702        -0.176040
 H         2.363933         1.504648         1.071544
 H         2.958511        -0.235582         1.292712
 H         1.848734         2.029317        -1.252263
 H         1.597062         0.580115        -2.414211
 H         5.165553        -1.926848        -0.978901
 H         4.708153        -1.197440         0.641893
 H         3.166980        -1.175433        -2.068715
