19
Iteration:  1933charge 0 multiplicity 1
 C        -0.143038         0.064084         0.231097
 C         1.324857         0.011263        -0.158495
 C         2.510710         0.402962         0.746787
 C         3.220309         0.368821        -0.623002
 C         1.967020         0.844331        -1.305231
 O         4.785780         0.292955        -0.828871
 C         4.649557        -1.108137        -0.413950
 C         3.113265        -1.114047        -0.968760
 O         1.819012        -1.327197        -0.403456
 H        -0.299708        -0.472857         1.121801
 H        -0.713000         1.081753         0.144905
 H        -0.609226        -0.670463        -0.532962
 H         2.666914         1.409484         1.062172
 H         2.482506        -0.374896         1.475179
 H         1.714892         1.925460        -1.263345
 H         1.712561         0.501906        -2.316191
 H         5.368849        -1.692957        -0.920697
 H         4.819327        -1.055118         0.665836
 H         3.041716        -1.309060        -2.078963
