19
Iteration:  2093
 C        -0.116174        -0.042106         0.209882
 C         1.372399         0.017861        -0.119084
 C         2.438705         0.609765         0.741044
 C         3.251489         0.341579        -0.602878
 C         2.053085         0.842724        -1.303472
 O         4.778930         0.312344        -0.691985
 C         4.649156        -1.138725        -0.575171
 C         3.158798        -1.172667        -1.033393
 O         1.694270        -1.397209        -0.379486
 H        -0.399514         0.014874         1.259356
 H        -0.540135         0.944509        -0.204480
 H        -0.689540        -0.802836        -0.191076
 H         2.128997         1.695130         0.820390
 H         2.984394         0.330858         1.670583
 H         1.798057         1.945630        -1.170070
 H         1.852484         0.594873        -2.322408
 H         5.322451        -1.766823        -1.232103
 H         4.876756        -1.357704         0.505303
 H         2.976173        -1.322478        -2.048941
