19
Iteration:  1090charge 0 multiplicity 1
 C        -0.120249        -0.098924         0.109611
 C         1.440027         0.004882        -0.181249
 C         2.542277         0.595695         0.818607
 C         3.281246         0.385022        -0.588293
 C         1.854277         1.020818        -1.257149
 O         4.835373         0.221806        -0.735748
 C         4.607748        -1.215438        -0.517860
 C         3.053380        -1.059125        -1.022803
 O         1.764020        -1.404225        -0.388670
 H        -0.477616        -0.098835         1.155953
 H        -0.587098         0.925616         0.053931
 H        -0.637374        -0.815477        -0.384748
 H         2.367328         1.679315         0.987499
 H         2.904178        -0.089327         1.598221
 H         1.649327         1.982526        -0.988228
 H         1.669927         0.801411        -2.284751
 H         5.236708        -1.856790        -1.135121
 H         4.907637        -1.415000         0.491343
 H         3.046541        -1.368222        -2.090645
