19
Iteration:  1223
 C        -0.145589        -0.036854         0.212494
 C         1.351214         0.042908        -0.181303
 C         2.509006         0.578344         0.689566
 C         3.177260         0.348653        -0.644978
 C         2.023984         1.006061        -1.333172
 O         4.690484         0.214890        -0.731392
 C         4.625318        -1.217564        -0.473612
 C         3.069192        -1.049145        -0.997437
 O         1.900687        -1.415023        -0.337197
 H        -0.093523        -0.831112         0.987892
 H        -0.558359         0.998883         0.593016
 H        -0.798817        -0.432621        -0.565962
 H         2.453712         1.627678         1.078117
 H         2.850166        -0.142271         1.507013
 H         1.941270         1.997863        -1.052290
 H         1.851303         0.707530        -2.330529
 H         5.393258        -1.671186        -1.077458
 H         4.755213        -1.504574         0.578383
 H         2.991638        -1.194149        -2.136740
