19
Iteration:  3709
 C        -0.146931         0.067831         0.202094
 C         1.326099        -0.025674        -0.129415
 C         2.555883         0.583312         0.704801
 C         3.191657         0.370715        -0.745283
 C         1.873735         0.787455        -1.422666
 O         4.797104         0.368690        -0.900362
 C         4.635103        -1.082455        -0.381478
 C         3.172754        -1.165698        -0.768423
 O         1.842238        -1.446274        -0.313583
 H        -0.717199        -0.493719        -0.527440
 H        -0.504494        -0.387726         1.122271
 H        -0.583730         1.118087         0.142786
 H         2.459518         1.576993         1.140285
 H         2.702373        -0.135844         1.540162
 H         1.603050         1.908612        -1.430302
 H         1.679244         0.177353        -2.314311
 H         5.405085        -1.545795        -0.945300
 H         4.734909        -1.393848         0.742241
 H         3.267313        -1.581840        -1.822776
