19
Iteration:    33
 C        -0.078039        -0.088650         0.411941
 C         1.322793         0.063671        -0.137882
 C         2.549209         0.633704         0.599981
 C         3.305615         0.371330        -0.675072
 C         1.889872         0.907301        -1.408789
 O         4.730775         0.236223        -0.637004
 C         4.696054        -1.229828        -0.452839
 C         3.106575        -1.033902        -0.991239
 O         1.745906        -1.364707        -0.496210
 H        -0.169654        -0.284373         1.488183
 H        -0.917109         0.569692         0.114215
 H        -0.314766        -0.995070        -0.191292
 H         2.421594         1.673114         0.955890
 H         2.844981        -0.059867         1.406915
 H         1.637766         1.915949        -1.148476
 H         1.694778         0.611567        -2.414421
 H         5.442230        -1.772294        -1.029518
 H         4.695287        -1.510083         0.616561
 H         3.103024        -1.148692        -2.079068
