19
Iteration:  3395charge 0 multiplicity 1
 C        -0.148716        -0.060442         0.273096
 C         1.356881         0.038839        -0.184979
 C         2.528144         0.581441         0.663884
 C         3.255533         0.368783        -0.740900
 C         1.963380         0.738173        -1.524434
 O         4.674201         0.329251        -0.792383
 C         4.595751        -1.081019        -0.358276
 C         3.193366        -1.109204        -0.840433
 O         1.859257        -1.343324        -0.299985
 H        -0.752831        -0.537501        -0.447881
 H        -0.145845        -0.735255         1.150524
 H        -0.672669         0.886493         0.551511
 H         2.399015         1.621069         1.008611
 H         2.836327        -0.004442         1.544681
 H         1.636398         1.788851        -1.531614
 H         1.739142         0.250934        -2.468360
 H         5.232063        -1.757216        -0.911009
 H         4.654503        -1.132301         0.757071
 H         3.179648        -1.444451        -1.890060
