19
Iteration:  4424
 C        -0.084545         0.029222         0.416229
 C         1.292923         0.026905        -0.231103
 C         2.539923         0.603073         0.602193
 C         3.187598         0.321818        -0.739868
 C         1.961733         0.772762        -1.570743
 O         4.703314         0.298521        -0.766128
 C         4.546363        -1.034761        -0.258237
 C         3.154859        -1.104077        -0.912193
 O         1.901861        -1.485611        -0.385305
 H        -0.783784         0.079172        -0.409716
 H        -0.315094        -0.898129         0.951163
 H        -0.055432         0.790247         1.239593
 H         2.347794         1.651834         0.842429
 H         2.938993         0.061034         1.411298
 H         1.720554         1.828902        -1.353918
 H         1.738865         0.496477        -2.630322
 H         5.329459        -1.721569        -0.466090
 H         4.507010        -0.984270         0.843718
 H         3.272607        -1.269985        -1.945441
