19
Iteration:  2999charge 0 multiplicity 1
 C        -0.091141        -0.021762         0.203149
 C         1.378911        -0.064799        -0.166927
 C         2.435340         0.670271         0.714100
 C         3.272248         0.400811        -0.603241
 C         1.986702         0.805618        -1.378468
 O         4.744578         0.327017        -0.777763
 C         4.572588        -1.168484        -0.499245
 C         3.113095        -1.099441        -0.942462
 O         1.869410        -1.411432        -0.317840
 H        -0.280938        -0.359960         1.296324
 H        -0.643576         0.828524        -0.059037
 H        -0.587235        -0.863121        -0.350306
 H         2.236916         1.744859         0.892464
 H         2.654912        -0.015557         1.584544
 H         1.677864         1.817597        -1.145502
 H         1.798889         0.771802        -2.385053
 H         5.315944        -1.855185        -0.989864
 H         4.592578        -1.222335         0.562419
 H         2.974826        -1.337770        -2.055274
