19
Iteration:  3955charge 0 multiplicity 1
 C        -0.058760         0.022797         0.268587
 C         1.312494         0.030831        -0.202962
 C         2.539086         0.587059         0.626454
 C         3.222759         0.367232        -0.758384
 C         1.828294         0.735165        -1.448456
 O         4.698072         0.330704        -0.760650
 C         4.618758        -1.089576        -0.262225
 C         3.193526        -1.138790        -0.904716
 O         1.875257        -1.429184        -0.376970
 H        -0.797798         0.127068        -0.515245
 H        -0.407231        -0.830403         0.934087
 H        -0.195723         0.777387         1.090921
 H         2.418539         1.670008         0.770458
 H         2.887507         0.079820         1.575847
 H         1.530536         1.847967        -1.453415
 H         1.482531         0.384785        -2.411040
 H         5.546942        -1.484618        -0.774750
 H         4.718041        -1.189673         0.858110
 H         3.340324        -1.560868        -1.954738
