19
Iteration:  3984charge 0 multiplicity 1
 C        -0.158806        -0.013688         0.142150
 C         1.336249        -0.021151        -0.168055
 C         2.536945         0.557441         0.652399
 C         3.233626         0.420015        -0.699310
 C         2.004826         0.793285        -1.420881
 O         4.671130         0.354362        -0.869079
 C         4.612558        -1.067575        -0.407321
 C         3.108700        -1.150569        -0.847743
 O         1.878492        -1.449140        -0.138599
 H        -0.731298         0.267203        -0.776399
 H        -0.430856        -1.006269         0.430084
 H        -0.345167         0.722079         0.917707
 H         2.352831         1.616490         0.869864
 H         2.894498        -0.022294         1.472875
 H         1.659970         1.859105        -1.346686
 H         1.786045         0.620261        -2.518838
 H         5.503421        -1.521403        -0.968946
 H         4.760365        -1.222435         0.663798
 H         3.236383        -1.586280        -1.886740
