19
Iteration:   442
 C        -0.072828        -0.053045         0.152123
 C         1.379087         0.021770        -0.206700
 C         2.548367         0.534312         0.763295
 C         3.261886         0.366292        -0.599798
 C         1.975563         0.960712        -1.287385
 O         4.719639         0.290462        -0.757853
 C         4.593807        -1.194327        -0.575058
 C         3.060062        -1.083836        -0.913982
 O         1.798868        -1.381853        -0.352307
 H        -0.018400        -0.538851         1.086870
 H        -0.546786         0.938496         0.296454
 H        -0.759572        -0.544374        -0.579848
 H         2.492010         1.613149         1.101972
 H         2.619891        -0.198465         1.599024
 H         1.687211         1.940689        -0.866817
 H         2.000763         0.784866        -2.339422
 H         5.185140        -1.755477        -1.283084
 H         4.699524        -1.589019         0.454778
 H         2.964185        -1.384880        -1.954728
