19
Iteration:  4059charge 0 multiplicity 1
 C        -0.000097         0.006410         0.283163
 C         1.391386        -0.067833        -0.159680
 C         2.506703         0.600973         0.599063
 C         3.210778         0.308320        -0.818876
 C         1.967600         0.876112        -1.446626
 O         4.605707         0.377147        -0.726426
 C         4.587220        -1.078122        -0.307352
 C         3.093931        -1.162435        -0.951059
 O         1.873368        -1.453315        -0.284973
 H        -0.605568        -0.757470        -0.320518
 H         0.023938        -0.453859         1.278350
 H        -0.401765         1.034062         0.072853
 H         2.344222         1.695479         0.711930
 H         2.769011         0.018280         1.490729
 H         1.660420         1.887563        -1.180436
 H         1.678687         0.519816        -2.495006
 H         5.351925        -1.703704        -0.782784
 H         4.700664        -1.014597         0.726489
 H         3.290395        -1.385393        -1.958971
