19
Iteration:  2362charge 0 multiplicity 1
 C        -0.095177        -0.095151         0.165866
 C         1.414628         0.038160        -0.120331
 C         2.535015         0.650939         0.712699
 C         3.232299         0.363720        -0.613655
 C         2.058687         0.921709        -1.322033
 O         4.642801         0.274429        -0.749934
 C         4.561930        -1.166271        -0.471041
 C         3.114518        -1.101802        -0.987472
 O         1.823782        -1.433909        -0.381029
 H        -0.378012        -0.354609         1.260631
 H        -0.566070         0.865869        -0.066290
 H        -0.733776        -0.710849        -0.397701
 H         2.240687         1.739207         0.812902
 H         2.949676         0.210843         1.686830
 H         2.020188         2.036999        -1.164000
 H         1.784502         0.499062        -2.263365
 H         5.215999        -1.975458        -0.936652
 H         4.680110        -1.317147         0.631113
 H         3.029766        -1.355114        -2.093871
