19
Iteration:   717
 C        -0.024647        -0.033430         0.290218
 C         1.381541         0.031911        -0.108842
 C         2.510742         0.574962         0.740206
 C         3.317757         0.370210        -0.661042
 C         1.935054         0.855990        -1.332679
 O         4.694863         0.316749        -0.742184
 C         4.572237        -1.140750        -0.449007
 C         3.083067        -1.109587        -0.914510
 O         1.777851        -1.396885        -0.557755
 H        -0.145874        -0.562237         1.184281
 H        -0.493425         0.878422         0.436050
 H        -0.597406        -0.590379        -0.501761
 H         2.500843         1.667467         1.009802
 H         2.774467        -0.268685         1.426867
 H         1.877448         1.940660        -1.093239
 H         1.719360         0.654094        -2.359092
 H         5.186203        -1.937489        -0.950330
 H         4.729703        -1.289267         0.571814
 H         3.144350        -1.374453        -1.959516
