19
Iteration:  4610charge 0 multiplicity 1
 C        -0.041936        -0.032279         0.270177
 C         1.312278         0.038479        -0.210580
 C         2.507332         0.691637         0.647977
 C         3.223283         0.265342        -0.666865
 C         1.919135         0.836163        -1.374134
 O         4.661660         0.326030        -0.815236
 C         4.693786        -1.072483        -0.303366
 C         3.150933        -1.192055        -0.893530
 O         1.778775        -1.443877        -0.411636
 H        -0.744957        -0.101653        -0.570493
 H        -0.298596        -0.921394         0.875026
 H        -0.272866         0.856136         0.943253
 H         2.376412         1.793050         0.716523
 H         2.751838         0.111995         1.536168
 H         2.017289         1.941412        -1.409722
 H         1.566865         0.440647        -2.329777
 H         5.545356        -1.567981        -0.880956
 H         5.026603        -1.173605         0.804628
 H         3.370448        -1.489084        -1.951555
