19
Iteration:   443charge 0 multiplicity 1
 C        -0.073645        -0.050590         0.154686
 C         1.387605         0.009932        -0.207774
 C         2.542523         0.536994         0.766429
 C         3.269226         0.369641        -0.587999
 C         1.976576         0.963346        -1.284111
 O         4.723588         0.297267        -0.766177
 C         4.582229        -1.192359        -0.570463
 C         3.053160        -1.089885        -0.913884
 O         1.797607        -1.383515        -0.356675
 H        -0.049107        -0.492022         1.090147
 H        -0.526698         0.907511         0.289368
 H        -0.732709        -0.550999        -0.579584
 H         2.507185         1.581127         1.120041
 H         2.617342        -0.183883         1.586715
 H         1.692744         1.926690        -0.939495
 H         2.010018         0.816565        -2.342568
 H         5.188985        -1.748193        -1.282271
 H         4.709869        -1.594253         0.429646
 H         2.962192        -1.420878        -1.945970
