19
Iteration:  1370charge 0 multiplicity 1
 C        -0.099812         0.024763         0.276100
 C         1.355642        -0.018942        -0.195464
 C         2.502336         0.543525         0.610063
 C         3.259565         0.364530        -0.728662
 C         1.906171         0.970303        -1.344501
 O         4.702875         0.265186        -0.690549
 C         4.596080        -1.174893        -0.441795
 C         3.125819        -1.065366        -0.931172
 O         1.907871        -1.430318        -0.373617
 H        -0.377082        -0.956703         0.843697
 H        -0.153437         0.767665         1.013785
 H        -0.832293         0.125146        -0.675509
 H         2.304138         1.536495         1.069485
 H         2.725558        -0.094651         1.490577
 H         1.707897         2.054945        -1.023657
 H         1.538162         0.656987        -2.404684
 H         5.206626        -1.787984        -1.134651
 H         4.664227        -1.550451         0.608099
 H         3.269326        -1.411607        -1.954319
