19
Iteration:  3994charge 0 multiplicity 1
 C        -0.121876        -0.036621         0.072705
 C         1.402637        -0.057704        -0.120874
 C         2.513455         0.694373         0.700270
 C         3.248157         0.353842        -0.623279
 C         1.975533         0.824228        -1.396073
 O         4.606794         0.337657        -0.897722
 C         4.667403        -1.064798        -0.419585
 C         3.120112        -1.137143        -0.842877
 O         1.839792        -1.489102        -0.203771
 H        -0.732511         0.280104        -0.820585
 H        -0.371159        -1.018453         0.411687
 H        -0.285024         0.710735         0.850051
 H         2.483891         1.803917         0.753192
 H         2.871003         0.319927         1.632655
 H         1.797108         1.835447        -1.136562
 H         1.878575         0.361614        -2.427517
 H         5.207258        -1.800268        -1.048722
 H         4.953728        -1.046672         0.602129
 H         2.953979        -1.516523        -1.889062
