19
Iteration:  2973charge 0 multiplicity 1
 C        -0.094963        -0.033462         0.310318
 C         1.339838         0.030761        -0.174149
 C         2.537492         0.495769         0.664203
 C         3.265887         0.417013        -0.717710
 C         1.857907         0.877835        -1.429412
 O         4.706459         0.282176        -0.816657
 C         4.637024        -1.080623        -0.255453
 C         3.145323        -1.085090        -0.864328
 O         1.853182        -1.422405        -0.454032
 H        -0.189687        -0.762395         1.091215
 H        -0.522484         1.015351         0.462042
 H        -0.857213        -0.244945        -0.497818
 H         2.614625         1.478240         1.127728
 H         2.713009        -0.314024         1.371414
 H         1.631968         1.989973        -1.527363
 H         1.611337         0.452217        -2.489209
 H         5.220091        -1.783628        -0.870248
 H         4.876449        -1.083326         0.882405
 H         3.257356        -1.544109        -1.881674
