19
Iteration:  3695charge 0 multiplicity 1
 C        -0.213785         0.055082         0.086650
 C         1.351434        -0.084773        -0.102487
 C         2.483818         0.552629         0.704337
 C         3.231638         0.393803        -0.708592
 C         1.849371         0.818916        -1.355577
 O         4.748755         0.284374        -0.912750
 C         4.700991        -1.110237        -0.379212
 C         3.171885        -1.077627        -0.891838
 O         1.894252        -1.424680        -0.193213
 H        -0.678128        -0.649957        -0.523556
 H        -0.428250        -0.037093         1.181744
 H        -0.407540         1.084149        -0.177531
 H         2.323708         1.637581         0.899025
 H         3.004689        -0.009003         1.485028
 H         1.529494         1.834961        -1.066724
 H         1.654868         0.654211        -2.413514
 H         5.200369        -1.928645        -0.943130
 H         5.098990        -0.998190         0.666171
 H         3.082291        -1.496774        -1.906638
