19
Iteration:  3236
 C        -0.088907         0.002689         0.289889
 C         1.369732        -0.014344        -0.247433
 C         2.492952         0.645087         0.672718
 C         3.199738         0.390918        -0.743018
 C         1.890764         0.811956        -1.500521
 O         4.706067         0.322968        -0.835996
 C         4.593502        -1.104389        -0.293944
 C         3.160489        -1.134805        -0.800398
 O         1.928550        -1.472187        -0.313903
 H        -0.828177        -0.267287        -0.578573
 H        -0.195478        -0.755877         1.033903
 H        -0.525461         0.954254         0.686646
 H         2.324895         1.696246         0.744889
 H         2.767225        -0.014636         1.525384
 H         1.564911         1.891335        -1.572209
 H         1.589038         0.371277        -2.435955
 H         5.420214        -1.770081        -0.719759
 H         4.667562        -1.089670         0.772747
 H         3.217558        -1.370518        -1.844893
