19
Iteration:  4724charge 0 multiplicity 1
 C        -0.032393         0.001028         0.319975
 C         1.417432        -0.019837        -0.151435
 C         2.485578         0.525628         0.637121
 C         3.241820         0.341139        -0.722957
 C         1.926251         0.896685        -1.460825
 O         4.610975         0.321545        -0.782820
 C         4.594155        -1.089763        -0.266753
 C         3.161772        -1.132481        -0.913574
 O         1.853963        -1.422316        -0.438520
 H        -0.747721        -0.697623        -0.185477
 H        -0.090467        -0.123372         1.404542
 H        -0.416103         0.990665         0.023697
 H         2.260888         1.578659         0.655806
 H         2.730793         0.063966         1.555600
 H         1.796745         1.999117        -1.426817
 H         1.792088         0.402639        -2.439133
 H         5.356837        -1.797775        -0.528788
 H         4.592594        -1.139662         0.796997
 H         3.318663        -1.510327        -1.875978
