19
Iteration:   595charge 0 multiplicity 1
 C        -0.040294         0.079045         0.139904
 C         1.420952        -0.009817        -0.097187
 C         2.554115         0.432738         0.848351
 C         3.221914         0.314334        -0.694870
 C         2.001849         0.909188        -1.310313
 O         4.633831         0.357307        -0.802973
 C         4.557200        -1.115089        -0.483948
 C         3.098427        -1.160979        -1.023060
 O         1.816872        -1.388647        -0.340731
 H        -0.249940        -0.853447         0.520186
 H        -0.314971         0.745770         0.887305
 H        -0.703528         0.041914        -0.742974
 H         2.447609         1.526834         1.023657
 H         2.830159        -0.185112         1.738896
 H         1.744597         1.920661        -1.229257
 H         1.754851         0.513743        -2.319515
 H         5.434769        -1.560209        -0.915907
 H         4.555352        -1.142687         0.572186
 H         3.088439        -1.473669        -2.039639
