19
Iteration:  2367charge 0 multiplicity 1
 C        -0.135524        -0.079596         0.126795
 C         1.444421         0.066327        -0.072523
 C         2.580614         0.639179         0.753374
 C         3.212136         0.343121        -0.641597
 C         2.064743         0.920395        -1.367072
 O         4.594306         0.292544        -0.763040
 C         4.556926        -1.204403        -0.454684
 C         3.130141        -1.105707        -0.939990
 O         1.848650        -1.435249        -0.387296
 H        -0.343262        -0.411023         1.095373
 H        -0.676712         0.965267         0.230279
 H        -0.703565        -0.847043        -0.528661
 H         2.256986         1.645701         0.855357
 H         2.926585         0.240031         1.651869
 H         2.009988         1.975692        -1.172346
 H         1.753890         0.563998        -2.391535
 H         5.144240        -1.899659        -1.006396
 H         4.830492        -1.313947         0.601153
 H         3.043451        -1.165328        -2.037844
