19
Iteration:  4930charge 0 multiplicity 1
 C        -0.065728        -0.030642         0.230526
 C         1.385545        -0.004684        -0.217215
 C         2.544664         0.630534         0.601073
 C         3.169618         0.361597        -0.749979
 C         1.839884         0.818229        -1.429075
 O         4.750440         0.313324        -0.717933
 C         4.557157        -1.095347        -0.257397
 C         3.169745        -1.156552        -0.876771
 O         1.846721        -1.416704        -0.402423
 H        -0.778188        -0.135015        -0.603041
 H        -0.304942        -0.752208         1.003856
 H        -0.199522         1.021305         0.701986
 H         2.439158         1.731507         0.722967
 H         3.040268         0.147889         1.432105
 H         1.739209         1.887820        -1.120525
 H         1.563820         0.539175        -2.430892
 H         5.314265        -1.872014        -0.558991
 H         4.791418        -1.122791         0.821127
 H         3.198500        -1.646715        -1.918207
