19
Iteration:  2551
 C        -0.158405         0.170160         0.158797
 C         1.363623         0.015759        -0.104559
 C         2.485064         0.551574         0.705203
 C         3.184903         0.221384        -0.728063
 C         1.949328         0.805043        -1.297982
 O         4.691983         0.372226        -0.763936
 C         4.689177        -1.016650        -0.469679
 C         3.165323        -1.251679        -0.923136
 O         1.839471        -1.474815        -0.321290
 H        -0.434682         0.171408         1.166919
 H        -0.597113         0.979677        -0.506245
 H        -0.479411        -0.805963        -0.285333
 H         2.594702         1.623724         0.977711
 H         2.657678        -0.075219         1.584757
 H         1.649448         1.819474        -1.024436
 H         1.902335         0.710126        -2.439761
 H         5.420597        -1.561019        -1.063023
 H         4.995140        -1.332850         0.620250
 H         3.207308        -1.414759        -2.007800
