19
Iteration:  2465charge 0 multiplicity 1
 C        -0.127098        -0.005667         0.302933
 C         1.293885         0.006294        -0.244178
 C         2.538261         0.487832         0.587261
 C         3.271689         0.339265        -0.776414
 C         1.851178         0.917423        -1.441145
 O         4.797193         0.272671        -0.716941
 C         4.615241        -1.119080        -0.281953
 C         3.173649        -1.100860        -0.865331
 O         1.830402        -1.353452        -0.397358
 H        -0.246326        -0.809973         0.988201
 H        -0.266315         0.822503         1.048554
 H        -1.057077        -0.123717        -0.307108
 H         2.376686         1.472048         0.927342
 H         2.871200        -0.078696         1.415659
 H         1.694305         1.997380        -1.461626
 H         1.515405         0.425836        -2.398472
 H         5.353873        -1.655187        -0.854310
 H         4.746399        -1.254488         0.809156
 H         3.143029        -1.380181        -1.974970
