19
Iteration:   899
 C        -0.074952         0.130177         0.261101
 C         1.274646        -0.148988        -0.181125
 C         2.526479         0.494744         0.765674
 C         3.208584         0.316554        -0.727832
 C         1.974637         1.025142        -1.277452
 O         4.746485         0.401892        -0.754904
 C         4.632980        -1.185222        -0.446682
 C         3.176349        -1.162858        -0.984048
 O         1.775065        -1.472061        -0.442888
 H        -0.337246        -0.115005         1.275262
 H        -0.431431         1.130522        -0.015041
 H        -0.630917        -0.755017        -0.322695
 H         2.333704         1.457336         1.134717
 H         2.817064        -0.272537         1.492400
 H         1.863666         1.977648        -0.696226
 H         1.846333         0.949920        -2.362344
 H         5.316046        -1.711996        -1.120467
 H         4.701033        -1.303132         0.682736
 H         3.121767        -1.447448        -2.081355
