19
Iteration:  1312charge 0 multiplicity 1
 C        -0.037795        -0.005328         0.299743
 C         1.326905        -0.026496        -0.166222
 C         2.565870         0.496315         0.720914
 C         3.227379         0.373275        -0.657516
 C         1.943841         1.010017        -1.361336
 O         4.699505         0.291264        -0.810152
 C         4.620749        -1.167642        -0.327820
 C         3.133052        -1.155809        -0.945301
 O         1.802762        -1.366997        -0.510814
 H        -0.083841        -0.401350         1.317293
 H        -0.671459         0.967286         0.049990
 H        -0.710911        -0.800468        -0.282890
 H         2.469478         1.589162         1.109810
 H         2.672861        -0.259124         1.601503
 H         1.690690         2.044259        -1.037758
 H         1.696273         0.797742        -2.408804
 H         5.299322        -1.841153        -0.889255
 H         4.591483        -1.395612         0.739304
 H         3.221999        -1.354910        -2.078138
