19
Iteration:  2846charge 0 multiplicity 1
 C        -0.170454         0.004846         0.144466
 C         1.346817         0.013536        -0.114184
 C         2.469327         0.488802         0.759647
 C         3.226178         0.402565        -0.758267
 C         1.975044         0.854313        -1.353514
 O         4.768864         0.289674        -0.870972
 C         4.626128        -1.110840        -0.395438
 C         3.151757        -1.036243        -0.949370
 O         1.869272        -1.407794        -0.260622
 H        -0.436313        -0.638994         1.067617
 H        -0.631133         0.953185         0.193374
 H        -0.523819        -0.631917        -0.741714
 H         2.281666         1.368424         1.394552
 H         2.735537        -0.255187         1.620326
 H         1.778811         1.941201        -1.192538
 H         1.614357         0.342472        -2.215438
 H         5.290204        -1.853366        -0.906169
 H         4.750281        -1.087065         0.655943
 H         3.009067        -1.224090        -2.030629
