19
Iteration:  2134charge 0 multiplicity 1
 C        -0.026057        -0.008559         0.268049
 C         1.325017         0.066162        -0.198341
 C         2.520366         0.450909         0.689204
 C         3.241708         0.378888        -0.711394
 C         1.869974         0.933347        -1.372051
 O         4.782870         0.273257        -0.759979
 C         4.530384        -1.161179        -0.269754
 C         3.101651        -1.088154        -1.049614
 O         1.868525        -1.357302        -0.419861
 H         0.047060        -0.379183         1.412560
 H        -0.608676         0.934059         0.281342
 H        -0.446389        -0.846144        -0.273534
 H         2.421827         1.405053         1.149701
 H         2.503889        -0.256534         1.497080
 H         1.618902         2.060477        -1.181698
 H         1.763226         0.668749        -2.467060
 H         5.357766        -1.724077        -0.779862
 H         4.472288        -1.460117         0.786828
 H         3.264159        -1.485560        -2.085380
