19
Iteration:  3546
 C        -0.167829        -0.056961         0.180722
 C         1.339899        -0.021073        -0.142216
 C         2.549278         0.761263         0.653597
 C         3.255481         0.333983        -0.651903
 C         1.940495         0.816809        -1.405544
 O         4.676592         0.335176        -0.892021
 C         4.678294        -1.099936        -0.358556
 C         3.164823        -1.150956        -0.881878
 O         1.805958        -1.518035        -0.272565
 H        -0.712040        -0.065139        -0.738361
 H        -0.460460        -0.916334         0.855030
 H        -0.372881         0.941484         0.740423
 H         2.411094         1.792504         0.922124
 H         2.846121         0.153788         1.508096
 H         1.684810         1.911963        -1.177791
 H         1.784989         0.582215        -2.464722
 H         5.462354        -1.632199        -0.775292
 H         4.970077        -0.952952         0.665264
 H         3.107935        -1.469700        -1.891232
