19
Iteration:  1134charge 0 multiplicity 1
 C         0.000366         0.086218         0.209701
 C         1.329993        -0.051387        -0.198526
 C         2.575468         0.410486         0.745969
 C         3.235272         0.352142        -0.602743
 C         2.050318         0.936809        -1.376324
 O         4.656860         0.379007        -0.718261
 C         4.593679        -1.094680        -0.462982
 C         3.064360        -1.142151        -0.964542
 O         1.726578        -1.442237        -0.446415
 H        -0.239938        -0.458541         1.185421
 H        -0.128475         1.128965         0.694619
 H        -0.641186        -0.348145        -0.482723
 H         2.549046         1.425333         1.221306
 H         2.811619        -0.368782         1.520238
 H         1.645790         1.863372        -1.193062
 H         2.064466         0.522830        -2.358193
 H         5.454229        -1.569082        -0.931238
 H         4.630005        -1.356152         0.591408
 H         3.088923        -1.371957        -2.082401
