19
Iteration:  3936
 C        -0.039717        -0.010037         0.368069
 C         1.402518        -0.133957        -0.124168
 C         2.518955         0.714025         0.568032
 C         3.228179         0.381724        -0.697383
 C         1.957035         0.754039        -1.444700
 O         4.672699         0.342691        -0.753646
 C         4.603190        -1.051101        -0.254196
 C         3.126723        -1.138721        -0.907119
 O         1.762054        -1.469244        -0.528787
 H        -0.682587        -0.259479        -0.470393
 H        -0.135875        -0.795497         1.253425
 H        -0.137819         1.008559         0.897555
 H         2.324300         1.839624         0.509629
 H         2.956363         0.383912         1.564571
 H         1.705784         1.807233        -1.526870
 H         1.740798         0.482883        -2.470598
 H         5.173880        -1.847682        -0.566984
 H         4.655464        -0.922157         0.818701
 H         3.446114        -1.445292        -1.857009
