19
Iteration:  4871
 C        -0.084454        -0.014073         0.249062
 C         1.288833         0.031853        -0.225312
 C         2.502269         0.586250         0.588617
 C         3.197120         0.331372        -0.710395
 C         1.932704         0.904710        -1.481714
 O         4.713265         0.291647        -0.776291
 C         4.689919        -1.141676        -0.278539
 C         3.149295        -1.127697        -0.856973
 O         1.832148        -1.411211        -0.305807
 H        -0.779627         0.192084        -0.604448
 H        -0.299481        -1.037889         0.652459
 H        -0.208578         0.631238         1.094603
 H         2.231424         1.725973         0.613180
 H         2.941890         0.023404         1.503204
 H         1.482409         1.879283        -1.363590
 H         1.752428         0.632226        -2.538345
 H         5.413159        -1.778842        -0.817952
 H         4.819468        -1.031794         0.822698
 H         3.380988        -1.747117        -1.723077
