19
Iteration:  3889charge 0 multiplicity 1
 C        -0.131319        -0.077897         0.263952
 C         1.367436         0.058747        -0.213344
 C         2.531508         0.580716         0.632861
 C         3.229501         0.330622        -0.798697
 C         1.884625         0.864024        -1.448485
 O         4.753431         0.343879        -0.779213
 C         4.612362        -1.086062        -0.297826
 C         3.100813        -1.147845        -0.857326
 O         1.859835        -1.418857        -0.283492
 H        -0.435846        -1.055120        -0.149477
 H        -0.056945        -0.028684         1.389693
 H        -0.607291         0.755037        -0.228480
 H         2.514131         1.644206         0.853091
 H         2.796009        -0.081462         1.486178
 H         1.656868         1.952527        -1.365711
 H         1.599063         0.672261        -2.465708
 H         5.312969        -1.652643        -0.960846
 H         4.650841        -1.397915         0.736087
 H         3.189558        -1.450222        -1.920911
