19
Iteration:  4413
 C        -0.085023         0.011160         0.391365
 C         1.410739        -0.083416        -0.162528
 C         2.565677         0.724228         0.558019
 C         3.243238         0.423220        -0.760750
 C         1.922665         0.780870        -1.467056
 O         4.671977         0.349084        -0.768766
 C         4.534710        -1.134904        -0.208242
 C         3.162134        -1.188568        -0.940809
 O         1.850068        -1.489349        -0.442990
 H        -0.912629         0.224137        -0.282820
 H        -0.229401        -0.952642         0.881883
 H        -0.313788         0.907920         1.027332
 H         2.290220         1.773479         0.620184
 H         2.815819         0.360347         1.511058
 H         1.545433         1.813406        -1.296826
 H         1.892488         0.546047        -2.557381
 H         5.301698        -1.700381        -0.671822
 H         4.508512        -1.137517         0.889375
 H         3.271781        -1.563036        -1.916682
