19
Iteration:  1643
 C        -0.044759         0.005565         0.337388
 C         1.347366        -0.032350        -0.195233
 C         2.512786         0.487731         0.726674
 C         3.279361         0.369606        -0.664027
 C         1.956880         0.889193        -1.278601
 O         4.706476         0.343234        -0.737012
 C         4.642976        -1.145197        -0.393226
 C         3.101644        -1.137191        -1.032034
 O         1.777843        -1.369799        -0.547700
 H        -0.317017        -0.632414         1.277185
 H        -0.328751         1.030838         0.592456
 H        -0.884238        -0.236420        -0.457671
 H         2.246651         1.581391         0.811936
 H         2.934951        -0.035451         1.636279
 H         1.812058         1.893689        -1.236846
 H         1.608478         0.596381        -2.212066
 H         5.427411        -1.762921        -0.726635
 H         4.471312        -1.343583         0.660471
 H         3.296289        -1.489757        -2.066409
