19
Iteration:  4123
 C        -0.024690        -0.057236         0.258281
 C         1.407569         0.008585        -0.203125
 C         2.525683         0.609208         0.622967
 C         3.250780         0.353717        -0.769322
 C         1.925702         0.832065        -1.416762
 O         4.663997         0.333027        -0.786492
 C         4.578203        -1.083403        -0.291046
 C         3.101158        -1.153617        -0.930146
 O         1.873934        -1.429132        -0.316813
 H        -0.632666        -0.971092        -0.106484
 H        -0.185473        -0.088068         1.380659
 H        -0.669516         0.831931        -0.014675
 H         2.293650         1.758666         0.769887
 H         2.773709         0.000450         1.519847
 H         1.615663         1.840303        -1.216149
 H         1.618455         0.616526        -2.456397
 H         5.436829        -1.664932        -0.633131
 H         4.599642        -1.032743         0.857113
 H         2.945365        -1.442970        -1.959710
