19
Iteration:  4171charge 0 multiplicity 1
 C        -0.120493         0.033165         0.072842
 C         1.305980        -0.012422        -0.182635
 C         2.439675         0.602091         0.691439
 C         3.252567         0.356674        -0.637858
 C         1.843845         0.718077        -1.355885
 O         4.764203         0.321128        -0.908744
 C         4.712216        -1.104150        -0.450233
 C         3.231180        -1.076307        -0.802653
 O         1.820083        -1.368538        -0.143429
 H        -0.689532        -0.305228        -0.863015
 H        -0.347141        -0.841141         0.792860
 H        -0.562626         0.907187         0.601791
 H         2.425215         1.651000         1.006806
 H         2.749933        -0.212413         1.399506
 H         1.493912         1.820657        -1.516431
 H         1.807480         0.262197        -2.367415
 H         5.293696        -1.758128        -1.190122
 H         5.091516        -1.179260         0.515743
 H         2.982242        -1.362790        -1.815046
