19
Iteration:  4113
 C        -0.077332        -0.028497         0.326912
 C         1.347223        -0.058480        -0.177260
 C         2.499227         0.562632         0.623404
 C         3.242215         0.357656        -0.754637
 C         1.842299         0.868894        -1.516581
 O         4.754267         0.300644        -0.784291
 C         4.570087        -1.045544        -0.292871
 C         3.190553        -1.134893        -0.902780
 O         1.841180        -1.375521        -0.355106
 H        -0.471304        -1.047687        -0.078615
 H         0.058586         0.010413         1.460621
 H        -0.613049         0.891719        -0.078773
 H         2.413685         1.581341         1.165431
 H         2.798979        -0.089824         1.510150
 H         1.594413         1.941339        -1.446281
 H         1.662974         0.352967        -2.488506
 H         5.294132        -1.803515        -0.656361
 H         4.564934        -0.977138         0.817312
 H         3.368339        -1.496853        -1.912228
