19
Iteration:  3041charge 0 multiplicity 1
 C        -0.174563        -0.045454         0.117813
 C         1.334860         0.030649        -0.166559
 C         2.547467         0.524976         0.699353
 C         3.265013         0.403469        -0.704873
 C         1.885295         0.822722        -1.369944
 O         4.754882         0.328392        -0.753549
 C         4.671044        -1.144831        -0.502014
 C         3.138335        -1.087235        -0.850251
 O         1.823769        -1.365296        -0.229921
 H        -0.489091         0.075300         1.168707
 H        -0.515049         0.699476        -0.498060
 H        -0.648043        -0.938952        -0.355963
 H         2.553679         1.350102         1.321987
 H         2.749562        -0.288525         1.429448
 H         1.532422         1.849607        -1.046678
 H         1.768420         0.593582        -2.369997
 H         5.266182        -1.558331        -1.374664
 H         5.052075        -1.426500         0.461685
 H         3.034446        -1.387544        -1.933790
