19
Iteration:  3600
 C         0.001815         0.035701         0.379938
 C         1.361970        -0.108023        -0.226366
 C         2.617295         0.589215         0.631248
 C         3.157797         0.366060        -0.727438
 C         1.975264         0.752314        -1.486209
 O         4.648939         0.326890        -0.759129
 C         4.507614        -1.008985        -0.243789
 C         3.139614        -1.102907        -0.981797
 O         1.837183        -1.443860        -0.394564
 H        -0.721981        -0.130081        -0.397867
 H        -0.175276        -0.724832         1.207502
 H        -0.101723         1.129233         0.751584
 H         2.193681         1.566454         0.699057
 H         3.123852         0.082489         1.453683
 H         1.434743         1.769384        -1.547753
 H         1.965400         0.230843        -2.440813
 H         5.321717        -1.582112        -0.519518
 H         4.454259        -0.941944         0.863212
 H         3.159531        -1.387656        -2.018896
