19
Iteration:  2582
 C        -0.064958         0.088965         0.226945
 C         1.353610        -0.053312        -0.185627
 C         2.493777         0.506956         0.696172
 C         3.197035         0.423399        -0.674798
 C         1.933503         0.809830        -1.445800
 O         4.715875         0.322610        -0.816382
 C         4.597601        -1.108576        -0.365268
 C         3.149574        -1.082529        -0.860965
 O         1.857761        -1.450601        -0.352698
 H        -0.280023        -0.175486         1.234305
 H        -0.624876         1.072337         0.083615
 H        -0.515563        -0.728964        -0.316260
 H         2.425679         1.522815         1.215752
 H         2.813297        -0.138728         1.549448
 H         1.526410         1.789303        -1.406756
 H         2.027790         0.430299        -2.482872
 H         5.070312        -1.835319        -0.962845
 H         4.820591        -1.328700         0.736921
 H         3.207683        -1.151981        -1.893956
