19
Iteration:   305charge 0 multiplicity 1
 C        -0.160694        -0.001804         0.208289
 C         1.300546        -0.044225        -0.119489
 C         2.496008         0.541821         0.748150
 C         3.317882         0.388729        -0.515303
 C         2.008660         0.948656        -1.323407
 O         4.759012         0.253233        -0.725498
 C         4.599218        -1.203142        -0.608246
 C         3.092457        -1.020727        -1.069498
 O         1.849953        -1.415706        -0.335118
 H        -0.348408        -0.326594         1.312905
 H        -0.643498         0.906323         0.004557
 H        -0.548735        -0.701013        -0.547492
 H         2.469536         1.588913         0.882746
 H         2.806411        -0.005872         1.590718
 H         1.553891         1.885455        -1.122351
 H         1.861533         0.758361        -2.477443
 H         5.376271        -1.894555        -1.057294
 H         4.542004        -1.434259         0.440341
 H         2.913778        -1.066657        -2.154949
