19
Iteration:  3484
 C        -0.156649        -0.050432         0.239239
 C         1.335946         0.000636        -0.153290
 C         2.532669         0.646221         0.609428
 C         3.273304         0.338129        -0.707431
 C         1.972067         0.834272        -1.368105
 O         4.624895         0.337061        -0.777156
 C         4.682332        -1.097472        -0.397132
 C         3.100173        -1.148386        -0.846096
 O         1.881285        -1.479652        -0.313285
 H        -0.742454        -0.911850        -0.168536
 H        -0.512375         0.085474         1.194987
 H        -0.484395         0.866483        -0.308261
 H         2.484666         1.743138         0.605151
 H         2.679263         0.288315         1.662411
 H         1.705695         1.899149        -1.181781
 H         1.703828         0.561537        -2.343192
 H         5.088247        -1.694022        -1.312827
 H         5.374669        -1.064762         0.484758
 H         3.295190        -1.350116        -1.956238
