19
Iteration:  2212
 C        -0.206097         0.031531         0.173669
 C         1.314777        -0.000469        -0.114336
 C         2.526639         0.526128         0.702715
 C         3.261954         0.382513        -0.666689
 C         2.050195         0.934303        -1.421427
 O         4.701455         0.323266        -0.713939
 C         4.606451        -1.214374        -0.520816
 C         3.128043        -1.111786        -0.920971
 O         1.888089        -1.458146        -0.283134
 H        -0.641678        -0.999599         0.436506
 H        -0.516373         0.804974         1.007634
 H        -0.709144         0.451111        -0.719055
 H         2.493015         1.585418         0.898996
 H         2.744810        -0.024616         1.590920
 H         1.515208         1.936763        -1.164250
 H         1.862506         0.694683        -2.475129
 H         5.246264        -1.751995        -1.207123
 H         4.837133        -1.259070         0.563377
 H         3.127040        -1.433194        -2.015984
