19
Iteration:  2470
 C        -0.168289        -0.011826         0.307568
 C         1.315059         0.025781        -0.251433
 C         2.540792         0.497155         0.600562
 C         3.245013         0.355950        -0.758350
 C         1.852165         0.899720        -1.449171
 O         4.762404         0.257396        -0.718951
 C         4.624086        -1.133159        -0.272955
 C         3.145836        -1.085730        -0.869510
 O         1.877333        -1.355026        -0.409586
 H        -0.064952        -0.890058         1.079698
 H        -0.299343         0.844521         0.950330
 H        -1.004587        -0.191240        -0.380106
 H         2.475524         1.633166         0.802573
 H         3.068728        -0.076039         1.447949
 H         1.819597         2.003649        -1.369044
 H         1.518600         0.555736        -2.415334
 H         5.334578        -1.720901        -0.928425
 H         4.637126        -1.323649         0.807737
 H         3.193692        -1.422510        -1.881251
