19
Iteration:  1813
 C        -0.086557         0.035936         0.329936
 C         1.359285        -0.044765        -0.194446
 C         2.585364         0.469660         0.679031
 C         3.255464         0.321971        -0.713109
 C         1.941831         0.974162        -1.384032
 O         4.681756         0.312645        -0.763952
 C         4.571549        -1.115700        -0.266357
 C         3.107861        -1.075087        -0.996510
 O         1.863167        -1.435851        -0.505599
 H        -0.189171        -0.887152         0.820303
 H        -0.270269         0.932294         1.068345
 H        -0.990709         0.053009        -0.305872
 H         2.370370         1.437252         1.049898
 H         2.879804        -0.249436         1.427294
 H         1.833273         2.123478        -1.290026
 H         1.492238         0.595939        -2.362113
 H         5.266783        -1.832928        -0.687957
 H         4.595422        -1.142212         0.879115
 H         3.049730        -1.429500        -2.007722
