19
Iteration:  3231
 C        -0.077935        -0.502659         0.370943
 C         1.373951        -0.137025        -0.048584
 C         2.477616        -0.347118         1.026610
 C         3.103571         0.783172         0.216057
 C         4.564528         1.233488         0.159379
 O         4.860249         0.153124        -0.887240
 C         3.430724         0.275986        -1.199297
 C         2.303292        -0.697333        -1.334011
 O         1.759047         1.368645         0.135561
 H        -0.314283         0.118411         1.324179
 H        -0.769019        -0.303487        -0.472089
 H        -0.226573        -1.594160         0.457630
 H         2.187345         0.047863         2.063073
 H         2.971965        -1.348985         0.978173
 H         4.722496         2.121608        -0.428769
 H         5.296539         1.138005         1.077067
 H         3.168430         1.109628        -1.803839
 H         1.720018        -0.756929        -2.252318
 H         2.557684        -1.698318        -1.040697
