19
Iteration:  4002
 C         0.052604        -0.599401         0.246558
 C         1.432188        -0.176636         0.008428
 C         2.587434        -0.326126         1.073628
 C         3.115926         0.785248         0.220703
 C         4.608793         1.297956         0.088762
 O         4.847206         0.085882        -0.729560
 C         3.351157         0.301182        -1.180613
 C         2.077931        -0.616565        -1.341360
 O         1.735377         1.354555         0.092120
 H        -0.098021        -0.282906         1.244925
 H        -0.773818        -0.249155        -0.364439
 H         0.023743        -1.699190         0.213712
 H         2.028022        -0.042001         2.013653
 H         3.292994        -1.187615         0.992042
 H         4.558484         2.252734        -0.541469
 H         5.322408         1.253143         0.874317
 H         3.227420         1.175809        -1.868466
 H         1.541668        -0.109206        -2.224406
 H         2.175251        -1.667932        -1.357211
