19
Iteration:  1178
 C        -0.048062        -0.472876         0.259669
 C         1.478538        -0.182339        -0.027066
 C         2.576224        -0.358206         1.051917
 C         3.180891         0.786327         0.245069
 C         4.664360         1.189219         0.208172
 O         4.744009         0.252476        -0.873971
 C         3.336314         0.256261        -1.210874
 C         2.228352        -0.679666        -1.364116
 O         1.651788         1.310934         0.147345
 H        -0.123449        -0.021470         1.143508
 H        -0.780955        -0.167478        -0.446555
 H         0.107961        -1.591735         0.390624
 H         2.181111        -0.065964         2.062432
 H         3.328218        -1.251674         0.996517
 H         4.885681         2.192073        -0.066753
 H         5.223922         0.897056         1.240775
 H         3.185302         1.078903        -1.808695
 H         1.577471        -0.311509        -2.228725
 H         2.406799        -1.753921        -1.440846
