19
Iteration:  3833
 C         0.046103        -0.572033         0.403813
 C         1.455098        -0.174168         0.021198
 C         2.563420        -0.311216         0.974392
 C         3.097716         0.908126         0.219647
 C         4.600664         1.161330         0.210770
 O         4.797158         0.102112        -0.833793
 C         3.409471         0.335135        -1.144691
 C         2.146883        -0.641212        -1.345293
 O         1.659700         1.380470        -0.027485
 H        -0.014423        -0.452196         1.481955
 H        -0.702531        -0.054495        -0.223318
 H        -0.192215        -1.641631         0.369068
 H         2.321780        -0.225071         1.996683
 H         3.123867        -1.263213         0.935611
 H         4.848064         2.141783        -0.250078
 H         5.147333         0.959634         1.231559
 H         3.518762         1.062633        -1.933783
 H         1.596196        -0.524539        -2.284877
 H         2.534959        -1.708494        -1.453078
