19
Iteration:  4719
 C         0.013548        -0.493037         0.232521
 C         1.497136        -0.137866         0.140771
 C         2.717711        -0.320634         0.995434
 C         3.110482         0.898516         0.101081
 C         4.577061         1.201642         0.245710
 O         4.736896         0.126021        -0.744724
 C         3.324922         0.279378        -1.248331
 C         2.126402        -0.709855        -1.340344
 O         1.707092         1.315320         0.072310
 H        -0.329073        -0.540539         1.290615
 H        -0.620276         0.240128        -0.306849
 H        -0.356305        -1.518212        -0.144758
 H         2.601000        -0.232405         2.039162
 H         3.270535        -1.305796         0.917343
 H         4.821892         2.131344        -0.187261
 H         5.228679         1.034550         1.188766
 H         3.290658         1.115287        -2.001882
 H         1.485058        -0.444837        -2.222239
 H         2.423069        -1.675611        -1.162988
