19
Iteration:  3243charge 0 multiplicity 1
 C        -0.055186        -0.529196         0.243485
 C         1.415981        -0.088018         0.038706
 C         2.514663        -0.381921         0.990318
 C         3.155668         0.783208         0.208175
 C         4.619723         1.230963         0.097919
 O         4.778640         0.196025        -0.851972
 C         3.368411         0.239441        -1.141441
 C         2.219195        -0.705524        -1.269977
 O         1.768099         1.360167         0.097786
 H        -0.381712         0.065409         1.231584
 H        -0.924369        -0.226153        -0.423533
 H         0.045186        -1.510277         0.755031
 H         2.124191        -0.071468         2.035515
 H         3.067417        -1.409037         1.177549
 H         4.693531         2.327237        -0.174764
 H         5.288837         1.083516         1.079909
 H         3.452721         0.972703        -1.937626
 H         1.870999        -0.510506        -2.347742
 H         2.482300        -1.724517        -1.168755
