19
Iteration:   570
 C        -0.006678        -0.528510         0.337918
 C         1.421320        -0.169631         0.069533
 C         2.753206        -0.357211         0.912619
 C         3.099973         0.875728         0.119097
 C         4.592545         1.076516         0.303143
 O         4.685847         0.135424        -0.872617
 C         3.277797         0.454443        -1.219751
 C         2.276328        -0.645333        -1.347700
 O         1.660022         1.329407         0.151986
 H        -0.324543        -0.407802         1.370717
 H        -0.595166         0.145175        -0.327242
 H        -0.041854        -1.547945        -0.065386
 H         2.708610        -0.175519         1.997162
 H         3.338698        -1.235592         0.625452
 H         5.064112         2.084294         0.073158
 H         4.895034         0.746779         1.244092
 H         3.226403         1.324604        -1.796810
 H         1.778535        -0.770927        -2.324957
 H         2.760085        -1.587335        -1.193092
