19
Iteration:  2236charge 0 multiplicity 1
 C         0.000780        -0.399860         0.273495
 C         1.456402        -0.241791         0.009355
 C         2.670805        -0.331749         1.009465
 C         3.115087         0.908277         0.194335
 C         4.631602         1.208071         0.218052
 O         4.742337         0.100941        -0.842169
 C         3.382296         0.384782        -1.239059
 C         2.142985        -0.680442        -1.333988
 O         1.638271         1.230663         0.152970
 H        -0.291753        -0.100494         1.227381
 H        -0.575106         0.090419        -0.432513
 H        -0.307847        -1.484226         0.288449
 H         2.364908        -0.048116         2.051075
 H         3.317781        -1.250620         1.030362
 H         5.175126         2.020885        -0.180447
 H         5.186477         0.832523         1.073991
 H         3.455628         1.213694        -2.037114
 H         1.509335        -0.668767        -2.187607
 H         2.597152        -1.598400        -1.214590
