19
Iteration:  1819
 C         0.055210        -0.506934         0.234751
 C         1.473206        -0.163422         0.041061
 C         2.667014        -0.363016         1.043013
 C         3.092897         0.871969         0.189899
 C         4.595587         1.186982         0.176442
 O         4.721287         0.067217        -0.830059
 C         3.325950         0.372077        -1.181284
 C         2.188107        -0.622180        -1.304375
 O         1.696679         1.326740         0.107204
 H        -0.559297        -0.079998         1.073169
 H        -0.560652        -0.364940        -0.730266
 H        -0.001733        -1.610121         0.340327
 H         2.444422        -0.181920         2.123547
 H         3.341570        -1.237531         0.877094
 H         4.875210         2.205953        -0.159255
 H         5.129177         1.012494         1.148014
 H         3.234613         1.255951        -1.896755
 H         1.520310        -0.480814        -2.090948
 H         2.438727        -1.646224        -1.340249
