19
Iteration:  1814
 C         0.034691        -0.540133         0.263222
 C         1.457848        -0.128912         0.047369
 C         2.603699        -0.337619         0.974420
 C         3.121178         0.827571         0.221368
 C         4.584174         1.193756         0.173719
 O         4.758281         0.091424        -0.829020
 C         3.330080         0.374590        -1.176896
 C         2.150769        -0.595882        -1.279068
 O         1.714943         1.295465         0.101441
 H        -0.505111        -0.142352         1.090458
 H        -0.477850        -0.331100        -0.689286
 H         0.125467        -1.630831         0.291316
 H         2.408104        -0.072689         1.995323
 H         3.296783        -1.162039         0.931306
 H         4.984910         2.082990        -0.340687
 H         5.148376         1.026026         1.125100
 H         3.459376         1.235502        -1.795574
 H         1.442827        -0.539144        -2.218175
 H         2.479032        -1.694554        -1.263578
