19
Iteration:  2568
 C        -0.022166        -0.553647         0.250863
 C         1.421929        -0.086863         0.023382
 C         2.558393        -0.432253         0.992137
 C         3.205137         0.770267         0.304227
 C         4.624208         1.270996         0.112217
 O         4.792271         0.137285        -0.841779
 C         3.368494         0.289586        -1.116440
 C         2.111950        -0.584403        -1.271105
 O         1.725385         1.299035         0.064054
 H        -0.444694         0.024809         1.130774
 H        -0.683361        -0.259008        -0.599967
 H        -0.010211        -1.570956         0.473720
 H         2.461318        -0.009268         2.055717
 H         3.032277        -1.478804         1.129031
 H         4.644781         2.306785        -0.437804
 H         5.417072         1.292393         0.836284
 H         3.437572         1.129860        -1.903455
 H         1.655992        -0.339037        -2.230247
 H         2.318598        -1.683378        -1.379682
