19
Iteration:  1239
 C         0.096691        -0.513210         0.272744
 C         1.488998        -0.199192         0.007131
 C         2.652564        -0.317796         0.908126
 C         3.103554         0.958721         0.159365
 C         4.613367         1.229502         0.189854
 O         4.736249         0.064424        -0.747310
 C         3.354173         0.285174        -1.192864
 C         2.152597        -0.601961        -1.371422
 O         1.623556         1.271453         0.237208
 H        -0.339866        -0.475213         1.304140
 H        -0.609681         0.034865        -0.454488
 H        -0.106521        -1.554754         0.048665
 H         2.290140        -0.088897         1.905298
 H         3.340268        -1.103619         0.948164
 H         5.087425         2.076338        -0.466534
 H         5.139675         1.109360         1.105726
 H         3.319078         1.044615        -2.081750
 H         1.631038        -0.335893        -2.261691
 H         2.271692        -1.695635        -1.380093
