19
Iteration:  3120
 C        -0.010640        -0.527852         0.306039
 C         1.460060        -0.197502         0.027972
 C         2.627292        -0.341138         1.015003
 C         3.101075         0.888698         0.208271
 C         4.617712         1.188767         0.198160
 O         4.802601         0.127503        -0.795860
 C         3.367357         0.310718        -1.206495
 C         2.091135        -0.637771        -1.309552
 O         1.730269         1.332533         0.006931
 H        -0.348257        -0.055528         1.309696
 H        -0.698820        -0.209172        -0.526647
 H        -0.132469        -1.651776         0.453920
 H         2.190017         0.087857         1.948829
 H         3.169501        -1.269703         1.106724
 H         4.981696         2.131202        -0.183198
 H         5.300784         0.902868         1.126114
 H         3.406292         1.117776        -1.868735
 H         1.403208        -0.464660        -2.081302
 H         2.482173        -1.673907        -1.367253
