19
Iteration:  3086
 C        -0.026200        -0.457627         0.297961
 C         1.481402        -0.172425         0.061972
 C         2.653629        -0.328143         0.966252
 C         3.022561         0.834382         0.149648
 C         4.579506         1.127617         0.203063
 O         4.846346         0.167922        -0.852286
 C         3.375724         0.306081        -1.201217
 C         2.210309        -0.711815        -1.331047
 O         1.663863         1.395693         0.144925
 H        -0.500321         0.300212         1.007566
 H        -0.572711        -0.392077        -0.700195
 H        -0.107297        -1.589523         0.616579
 H         2.349482        -0.158423         2.012667
 H         3.195515        -1.269861         0.961617
 H         4.798752         2.166162        -0.116807
 H         5.060446         0.747702         1.255914
 H         3.329677         0.945205        -2.088815
 H         1.450310        -0.719807        -2.111897
 H         2.598320        -1.735795        -1.107838
