19
Iteration:  1870charge 0 multiplicity 1
 C        -0.005813        -0.506658         0.268162
 C         1.392799        -0.062681         0.038766
 C         2.576783        -0.466877         1.020795
 C         3.147594         0.731744         0.232834
 C         4.583021         1.248254         0.169723
 O         4.813914         0.215145        -0.850310
 C         3.377299         0.271448        -1.204933
 C         2.189810        -0.632871        -1.321504
 O         1.733226         1.334421         0.120233
 H        -0.466086         0.000925         1.024055
 H        -0.686938        -0.377851        -0.636533
 H        -0.184253        -1.495289         0.485211
 H         2.455294        -0.100447         2.018252
 H         3.101965        -1.371636         0.949789
 H         4.719868         2.178529        -0.292291
 H         5.245213         1.205062         1.141298
 H         3.359514         1.007424        -1.958620
 H         1.523445        -0.623343        -2.222001
 H         2.370219        -1.719339        -1.101513
