19
Iteration:  3483
 C         0.007190        -0.512900         0.390362
 C         1.388136        -0.052244        -0.014517
 C         2.635597        -0.330216         0.946684
 C         3.101041         0.896327         0.112932
 C         4.622248         1.263788         0.232543
 O         4.722065         0.059233        -0.731835
 C         3.357999         0.325584        -1.248003
 C         2.258614        -0.754065        -1.388856
 O         1.647298         1.313079         0.130753
 H        -0.110457        -0.219737         1.426701
 H        -0.654058         0.003275        -0.322075
 H        -0.145526        -1.580532         0.220670
 H         2.328479        -0.029100         1.934559
 H         3.256042        -1.230707         1.194943
 H         4.981945         2.150205        -0.306373
 H         5.297312         0.915838         1.162470
 H         3.373991         1.059238        -2.145647
 H         2.122077        -0.790434        -2.521067
 H         2.507523        -1.786084        -1.226236
