19
Iteration:  3212
 C         0.025518        -0.425690         0.292129
 C         1.457296        -0.202990         0.041898
 C         2.563369        -0.394239         1.041590
 C         3.152497         0.823582         0.174279
 C         4.592618         1.209251         0.197852
 O         4.829606         0.178622        -0.794262
 C         3.302973         0.335919        -1.211696
 C         2.135799        -0.759630        -1.319886
 O         1.714094         1.330822         0.039092
 H        -0.099064        -0.032735         1.338796
 H        -0.667240         0.107471        -0.433327
 H        -0.144159        -1.535428         0.387436
 H         2.128226         0.108072         1.932126
 H         3.215856        -1.365224         1.061871
 H         4.794086         2.328968        -0.103365
 H         5.182735         1.015097         1.130826
 H         3.274098         1.082564        -2.072743
 H         1.554834        -0.697345        -2.338686
 H         2.627883        -1.716370        -1.243817
