19
Iteration:  3064
 C        -0.022606        -0.545308         0.239240
 C         1.475330        -0.148965         0.011298
 C         2.573367        -0.393316         0.999070
 C         3.153001         0.799797         0.276964
 C         4.601241         1.303749         0.171677
 O         4.699273         0.134726        -0.833296
 C         3.337936         0.302616        -1.154419
 C         2.172204        -0.706717        -1.308575
 O         1.811599         1.392323         0.080181
 H        -0.159877         0.266404         0.998098
 H        -0.749957        -0.404148        -0.637714
 H        -0.173682        -1.644961         0.624983
 H         2.221398        -0.084302         1.993836
 H         3.003068        -1.417174         1.112291
 H         4.813327         2.229597        -0.383246
 H         5.419846         0.961525         0.971308
 H         3.205734         1.163974        -1.835057
 H         1.524266        -0.617534        -2.210716
 H         2.564446        -1.743441        -1.234752
