19
Iteration:  1568charge 0 multiplicity 1
 C         0.047023        -0.547573         0.276904
 C         1.462510        -0.175993         0.013593
 C         2.626223        -0.360852         1.014205
 C         3.126006         0.845567         0.194013
 C         4.623705         1.177628         0.205564
 O         4.774052         0.120332        -0.779129
 C         3.347236         0.361824        -1.199480
 C         2.114104        -0.629481        -1.337797
 O         1.668887         1.339922         0.097177
 H        -0.141655        -0.522810         1.300221
 H        -0.616701         0.137463        -0.303301
 H        -0.038998        -1.559828        -0.053003
 H         2.325419        -0.159814         2.037164
 H         3.260821        -1.250202         0.895956
 H         4.740420         2.185321        -0.281111
 H         5.372689         1.050374         1.012697
 H         3.406304         1.160534        -1.901699
 H         1.513878        -0.264928        -2.250873
 H         2.253435        -1.712098        -1.373306
