19
Iteration:  1240
 C         0.097233        -0.504431         0.275870
 C         1.492010        -0.204540         0.007845
 C         2.654863        -0.310629         0.909043
 C         3.101463         0.958127         0.157460
 C         4.611778         1.230037         0.186872
 O         4.746088         0.060344        -0.744690
 C         3.343336         0.289421        -1.194780
 C         2.156697        -0.600720        -1.370474
 O         1.619324         1.268538         0.238312
 H        -0.326977        -0.474822         1.270620
 H        -0.631906         0.033721        -0.454643
 H        -0.123584        -1.596346         0.049244
 H         2.273138        -0.100270         1.904338
 H         3.343149        -1.114965         0.932828
 H         5.084808         2.048982        -0.451165
 H         5.113910         1.078524         1.079083
 H         3.324452         1.059680        -2.089468
 H         1.624636        -0.331836        -2.244393
 H         2.307006        -1.671456        -1.375032
