19
Iteration:   721charge 0 multiplicity 1
 C         0.105793        -0.741771         0.306225
 C         1.395527        -0.134584         0.016240
 C         2.535432        -0.284677         1.027234
 C         3.155341         0.800537         0.169516
 C         4.549068         1.216935         0.183533
 O         4.880955         0.080453        -0.847633
 C         3.329620         0.270916        -1.194541
 C         2.046858        -0.496178        -1.358200
 O         1.756244         1.433112         0.165848
 H        -0.114538        -0.666496         1.304248
 H        -0.678687        -0.208669        -0.324384
 H         0.128571        -1.909013         0.060746
 H         2.202111         0.177129         1.975789
 H         2.924802        -1.289180         1.169115
 H         4.838422         2.204252        -0.295158
 H         5.180561         1.029622         1.044173
 H         3.389835         1.123734        -2.020155
 H         1.624526        -0.166036        -2.362133
 H         2.227265        -1.601601        -1.269632
