19
Iteration:  2795charge 0 multiplicity 1
 C         0.027710        -0.459840         0.231070
 C         1.494605        -0.247846         0.107837
 C         2.647230        -0.329358         1.086261
 C         3.074814         0.888880         0.125026
 C         4.592878         1.236260         0.130854
 O         4.735280         0.065640        -0.735201
 C         3.330835         0.329153        -1.265850
 C         2.186263        -0.640832        -1.354537
 O         1.692016         1.263584         0.116412
 H        -0.331682        -0.333893         1.298049
 H        -0.529362         0.165675        -0.533550
 H        -0.331203        -1.513448         0.109430
 H         2.308941         0.146538         2.039981
 H         3.377741        -1.075659         1.155927
 H         5.017170         2.083678        -0.476665
 H         5.192902         1.197862         1.033865
 H         3.511320         1.212303        -1.934627
 H         1.397866        -0.290569        -2.018468
 H         2.620520        -1.703315        -1.326625
