19
Iteration:  2373
 C        -0.063829        -0.493706         0.321342
 C         1.382232        -0.111835         0.094678
 C         2.563836        -0.362932         1.008340
 C         3.146750         0.754434         0.265215
 C         4.656146         1.148130         0.194989
 O         4.849527         0.260855        -0.934618
 C         3.357452         0.261752        -1.092294
 C         2.155701        -0.690298        -1.366882
 O         1.720227         1.329063         0.041139
 H        -0.574101        -0.012505         1.327424
 H        -0.447409        -0.332834        -0.787932
 H         0.198801        -1.523828         0.576566
 H         2.282813        -0.032688         2.014757
 H         3.019587        -1.370387         1.030011
 H         4.704626         2.156014        -0.318982
 H         5.415008         1.094310         0.956731
 H         3.122901         1.088984        -1.784598
 H         1.834969        -0.248065        -2.339284
 H         2.275194        -1.840186        -1.313240
