19
Iteration:  3834charge 0 multiplicity 1
 C         0.046971        -0.572265         0.406372
 C         1.449784        -0.177827         0.021757
 C         2.565410        -0.314454         0.979534
 C         3.098408         0.901850         0.222119
 C         4.599450         1.164054         0.210282
 O         4.789508         0.104026        -0.828781
 C         3.410238         0.339282        -1.156123
 C         2.150229        -0.636315        -1.350975
 O         1.660985         1.376805        -0.029464
 H        -0.020476        -0.436308         1.490918
 H        -0.662605        -0.070159        -0.223004
 H        -0.202758        -1.619506         0.341341
 H         2.334073        -0.195911         2.040654
 H         3.136053        -1.234739         0.938466
 H         4.896609         2.129335        -0.247632
 H         5.113836         0.942500         1.205803
 H         3.541986         1.060827        -1.955327
 H         1.600994        -0.501066        -2.255075
 H         2.531588        -1.733265        -1.432674
