19
Iteration:  2215
 C        -0.000101        -0.498387         0.188169
 C         1.454628        -0.213217         0.079515
 C         2.645284        -0.339627         1.051868
 C         3.131664         0.860087         0.202360
 C         4.597590         1.127735         0.170669
 O         4.742937         0.136798        -0.864889
 C         3.313602         0.341526        -1.194017
 C         2.192641        -0.677809        -1.326870
 O         1.715292         1.349821         0.195572
 H        -0.449379         0.047995         0.947609
 H        -0.408551        -0.150486        -0.751712
 H        -0.449016        -1.534509         0.391673
 H         2.619958         0.033180         2.114918
 H         3.334996        -1.239869         1.040001
 H         4.828443         2.085494        -0.381716
 H         5.197709         1.124120         1.021477
 H         3.358519         1.154890        -1.959461
 H         1.569792        -0.362362        -2.109893
 H         2.367470        -1.669150        -1.486620
