19
Iteration:  4920
 C        -0.012822        -0.459424         0.330736
 C         1.394814        -0.240975        -0.011630
 C         2.609564        -0.331128         1.028528
 C         3.127227         0.878531         0.172405
 C         4.602027         1.146330         0.217542
 O         4.774848         0.132167        -0.790367
 C         3.348084         0.392558        -1.243405
 C         2.248499        -0.729262        -1.349280
 O         1.690054         1.329461         0.060187
 H        -0.178436        -0.156573         1.414672
 H        -0.628855         0.208785        -0.247097
 H        -0.273004        -1.447250         0.238508
 H         2.424405         0.062704         2.053223
 H         3.130459        -1.255235         0.916388
 H         4.880260         2.209899        -0.081570
 H         5.147695         0.839284         1.092555
 H         3.201892         1.289377        -1.867592
 H         1.767882        -0.765231        -2.271905
 H         2.605197        -1.770895        -1.135483
