19
Iteration:   217
 C        -0.041837        -0.634219         0.321999
 C         1.407718        -0.173901        -0.034455
 C         2.581168        -0.378417         1.156161
 C         3.188700         0.716427         0.240304
 C         4.525755         1.277757         0.211818
 O         4.879252         0.168209        -0.934299
 C         3.338601         0.328031        -1.228595
 C         2.104694        -0.571150        -1.301329
 O         1.825632         1.392650         0.017662
 H        -0.247252        -0.552245         1.573039
 H        -0.832940        -0.056165        -0.040094
 H        -0.199204        -1.686414        -0.058930
 H         2.162238         0.050091         2.114397
 H         2.965451        -1.457727         1.178264
 H         4.668520         2.276755        -0.142189
 H         5.112481         0.889774         1.156177
 H         3.411088         1.353298        -1.935028
 H         1.349895        -0.456380        -2.063861
 H         2.411176        -1.623748        -1.343916
