19
Iteration:   168charge 0 multiplicity 1
 C        -0.071151        -0.575396         0.232091
 C         1.432861        -0.198060         0.068849
 C         2.756356        -0.308899         0.959208
 C         3.201213         0.847045         0.131497
 C         4.634907         1.170518         0.239666
 O         4.706230         0.060392        -0.837322
 C         3.295059         0.442559        -1.232164
 C         2.209792        -0.581977        -1.277566
 O         1.631377         1.295172         0.184480
 H        -0.402586        -0.104311         1.048608
 H        -0.657143        -0.133702        -0.673295
 H        -0.276616        -1.631795         0.325984
 H         2.671984         0.156089         1.926099
 H         3.462944        -1.107492         0.921536
 H         4.869516         2.121675        -0.323134
 H         5.148060         1.022832         1.158730
 H         3.347886         1.217146        -1.915336
 H         1.579198        -0.668212        -2.228847
 H         2.666996        -1.632000        -1.078427
