19
Iteration:  2891
 C         0.017085        -0.492296         0.225362
 C         1.405220        -0.181197         0.060597
 C         2.594097        -0.330279         1.027962
 C         3.112955         0.864919         0.180664
 C         4.650095         1.194686         0.138550
 O         4.742970         0.083735        -0.866281
 C         3.334968         0.366967        -1.176647
 C         2.250184        -0.647751        -1.218451
 O         1.643118         1.265232         0.094584
 H        -0.315551         0.253635         0.926824
 H        -0.339468        -0.236479        -0.800167
 H        -0.092511        -1.480968         0.706333
 H         2.268996        -0.117682         2.146149
 H         3.263987        -1.321699         0.969408
 H         4.927273         2.186387        -0.341120
 H         5.285872         1.124157         1.138884
 H         3.405529         1.265151        -1.887461
 H         1.706106        -0.400635        -2.138985
 H         2.655726        -1.679755        -1.059001
