19
Iteration:   401charge 0 multiplicity 1
 C        -0.023521        -0.531900         0.224768
 C         1.444246        -0.199814         0.053188
 C         2.647526        -0.471168         1.050902
 C         3.116122         0.758131         0.196567
 C         4.515804         1.275966         0.128523
 O         4.823682         0.153989        -0.824526
 C         3.381661         0.346945        -1.262345
 C         2.075426        -0.606509        -1.321652
 O         1.786489         1.375788         0.206250
 H        -0.191409        -0.295197         1.341105
 H        -0.712345         0.101507        -0.260415
 H        -0.219085        -1.577546        -0.001149
 H         2.514009        -0.018101         2.076216
 H         3.214799        -1.426000         1.055388
 H         4.430618         2.140400        -0.454996
 H         5.319828         1.344910         0.976709
 H         3.472887         1.098806        -1.942577
 H         1.407112        -0.468402        -2.262778
 H         2.443286        -1.754643        -1.299052
