19
Iteration:   913
 C        -0.020517        -0.660608         0.359188
 C         1.415970        -0.160498         0.055358
 C         2.469636        -0.369330         1.006718
 C         3.117203         0.821378         0.221351
 C         4.601779         1.247206         0.182788
 O         4.862419         0.168526        -0.806810
 C         3.379202         0.392483        -1.193183
 C         2.092432        -0.568533        -1.364633
 O         1.851874         1.303148         0.020094
 H        -0.204859        -0.493718         1.367754
 H        -0.841499        -0.155295        -0.220974
 H        -0.065837        -1.734559         0.200130
 H         2.168737        -0.190330         2.069974
 H         2.923306        -1.397111         0.960650
 H         4.702390         2.154338        -0.244246
 H         5.309662         1.039710         1.034300
 H         3.284820         1.163197        -1.917728
 H         1.483067        -0.255361        -2.225970
 H         2.477335        -1.617254        -1.476766
