19
Iteration:   352charge 0 multiplicity 1
 C         0.061645        -0.593008         0.339916
 C         1.459935        -0.207522         0.009661
 C         2.646231        -0.318491         0.944772
 C         3.114756         0.823499         0.153251
 C         4.587107         1.156748         0.205478
 O         4.803334         0.120454        -0.831404
 C         3.279446         0.378048        -1.242453
 C         2.169692        -0.591988        -1.328591
 O         1.667535         1.349036         0.179978
 H        -0.178657        -0.126181         1.274186
 H        -0.710082        -0.067824        -0.364682
 H        -0.117495        -1.724654         0.337850
 H         2.275402         0.032205         1.886790
 H         3.265796        -1.208428         0.994871
 H         4.960441         2.191013        -0.118493
 H         5.037355         0.861875         1.091400
 H         3.363067         1.267919        -2.030663
 H         1.598799        -0.456031        -2.194476
 H         2.471249        -1.568468        -1.266121
