19
Iteration:   930charge 0 multiplicity 1
 C         0.097562        -0.526193         0.316104
 C         1.453270        -0.136216        -0.049914
 C         2.598357        -0.419453         1.048003
 C         3.125570         0.744637         0.265829
 C         4.555667         1.170043         0.255054
 O         4.788065         0.209234        -0.899219
 C         3.369903         0.281154        -1.139554
 C         2.163497        -0.622405        -1.344742
 O         1.663795         1.385250         0.015246
 H        -0.087750        -0.349922         1.482937
 H        -0.574671        -0.063425        -0.375783
 H         0.011825        -1.659767         0.268521
 H         2.310643        -0.086371         2.020654
 H         3.184608        -1.330341         1.107000
 H         4.746630         2.360369        -0.027029
 H         5.128779         1.019833         1.136063
 H         3.182881         1.203230        -1.801316
 H         1.615324        -0.329549        -2.251335
 H         2.212937        -1.691127        -1.460144
