19
Iteration:  3880
 C         0.018155        -0.562433         0.241558
 C         1.480592        -0.172684         0.046248
 C         2.678693        -0.368169         0.977586
 C         3.024362         0.902542         0.123504
 C         4.649768         1.249384         0.135071
 O         4.786914         0.079948        -0.763603
 C         3.357080         0.250611        -1.197382
 C         2.151938        -0.644009        -1.260058
 O         1.667712         1.416398         0.158926
 H        -0.378155        -0.264283         1.213076
 H        -0.496134        -0.158067        -0.577236
 H        -0.195596        -1.602313         0.185060
 H         2.429634        -0.321736         2.094785
 H         3.303817        -1.181944         0.804313
 H         4.841981         2.232381        -0.340611
 H         5.183456         1.063551         1.011099
 H         3.205524         1.084214        -1.913699
 H         1.671590        -0.402707        -2.175327
 H         2.159771        -1.768784        -1.248044
