19
Iteration:    26
 C         0.065976        -0.649549         0.245002
 C         1.425049        -0.070789        -0.007258
 C         2.508073        -0.390055         1.077702
 C         3.154070         0.767004         0.267111
 C         4.610187         1.282761         0.062138
 O         4.813947         0.139493        -0.862196
 C         3.341067         0.231293        -1.098491
 C         2.097791        -0.629579        -1.386576
 O         1.795221         1.448922         0.203846
 H        -0.079626        -0.691364         1.288672
 H        -0.900056        -0.092502        -0.272330
 H         0.058791        -1.727885        -0.176172
 H         2.283123         0.008032         2.066493
 H         2.951716        -1.347862         0.983535
 H         4.611253         2.272425        -0.464761
 H         5.286303         1.229808         0.855349
 H         3.280237         1.120769        -1.906567
 H         1.506861        -0.392804        -2.358199
 H         2.161400        -1.799439        -1.220059
