19
Iteration:  1493charge 0 multiplicity 1
 C        -0.106731        -0.590537         0.243586
 C         1.375321        -0.219465         0.019105
 C         2.533813        -0.385576         1.058023
 C         3.156505         0.704460         0.298884
 C         4.650193         1.224668         0.146384
 O         4.831044         0.230657        -0.894726
 C         3.388625         0.341881        -1.152335
 C         2.115878        -0.635666        -1.350757
 O         1.848056         1.387396         0.146827
 H        -0.473236         0.041978         1.065204
 H        -0.658718        -0.440695        -0.775990
 H        -0.145232        -1.774972         0.521166
 H         2.203685        -0.022526         2.020574
 H         3.066042        -1.333999         1.115614
 H         4.525885         2.294661        -0.269113
 H         5.409716         1.331825         0.819652
 H         3.430284         1.241065        -1.910104
 H         1.375739        -0.327594        -2.146445
 H         2.371644        -1.693691        -1.453624
