19
Iteration:   149charge 0 multiplicity 1
 C         0.055412        -0.548229         0.219095
 C         1.492929        -0.179584         0.089329
 C         2.638818        -0.431270         1.068016
 C         3.098665         0.880680         0.204666
 C         4.592753         1.250042         0.110138
 O         4.740332         0.134307        -0.800911
 C         3.315522         0.332749        -1.215057
 C         2.121963        -0.611631        -1.355038
 O         1.746670         1.313066         0.157648
 H        -0.513730         0.162934         1.018672
 H        -0.487433        -0.410693        -0.737478
 H         0.048632        -1.591417         0.533943
 H         2.337588        -0.148682         2.095604
 H         3.231031        -1.400311         1.012938
 H         4.833769         2.239559        -0.229600
 H         5.205825         0.956210         1.046345
 H         3.355542         1.201932        -2.034492
 H         1.477048        -0.256557        -2.195673
 H         2.254297        -1.742327        -1.495255
