19
Iteration:  3289
 C        -0.056522        -0.510399         0.248607
 C         1.480995        -0.175487         0.031572
 C         2.650375        -0.298975         1.043446
 C         3.098924         0.907670         0.121378
 C         4.619309         1.214266         0.156984
 O         4.716539         0.101707        -0.739429
 C         3.364334         0.285605        -1.269174
 C         2.224507        -0.685092        -1.284917
 O         1.691566         1.291976         0.144441
 H        -0.634659        -0.095086         1.119051
 H        -0.545500         0.071351        -0.609672
 H        -0.025059        -1.625809         0.413694
 H         2.604883         0.150596         2.075900
 H         3.317363        -1.334601         1.059047
 H         5.164054         2.142470        -0.372405
 H         5.249806         1.097191         1.067472
 H         3.212871         1.000185        -2.106310
 H         1.544636        -0.307875        -2.155453
 H         2.321738        -1.769735        -1.369697
