19
Iteration:  4282
 C         0.033863        -0.519851         0.257733
 C         1.376554        -0.058097        -0.053031
 C         2.550345        -0.367655         1.027099
 C         3.134475         0.804707         0.187016
 C         4.613209         1.249195         0.159895
 O         4.850226         0.212945        -0.846898
 C         3.327459         0.166836        -1.206183
 C         2.155550        -0.687979        -1.195216
 O         1.745867         1.323522         0.151668
 H        -0.452871         0.110916         0.966732
 H        -0.649423        -0.309478        -0.592564
 H        -0.027087        -1.633359         0.427118
 H         2.205998        -0.101606         2.076860
 H         3.160473        -1.269710         0.870375
 H         4.658755         2.199131        -0.410860
 H         5.328842         1.179064         1.035542
 H         3.243805         1.057817        -1.844557
 H         1.660446        -0.592078        -2.240787
 H         2.366793        -1.785926        -1.117192
