19
Iteration:  1351
 C         0.028788        -0.439171         0.183998
 C         1.533725        -0.236123         0.048896
 C         2.647559        -0.320263         0.928484
 C         3.151160         0.826810         0.251222
 C         4.602543         1.206006         0.203119
 O         4.789035         0.133003        -0.827001
 C         3.216641         0.387407        -1.172031
 C         2.142123        -0.736865        -1.315032
 O         1.637628         1.276637         0.224180
 H        -0.244379         0.159866         0.985673
 H        -0.258142         0.021715        -0.795933
 H        -0.185247        -1.600544         0.237889
 H         2.505052        -0.003144         1.924893
 H         3.377281        -1.111354         0.863627
 H         4.832130         2.320689        -0.340000
 H         5.339902         1.053951         0.969566
 H         3.292411         1.149341        -2.072069
 H         1.543034        -0.561870        -2.195321
 H         2.421114        -1.759997        -1.294709
