19
Iteration:  1151
 C        -0.036040        -0.502051         0.211006
 C         1.488362        -0.281747         0.083205
 C         2.631916        -0.443152         0.999601
 C         3.126215         0.814339         0.182691
 C         4.590256         1.166630         0.251235
 O         4.749758         0.179096        -0.881199
 C         3.333095         0.439054        -1.293669
 C         2.206473        -0.609423        -1.222140
 O         1.702033         1.332374         0.122871
 H        -0.318889         0.315673         1.060345
 H        -0.485055        -0.137715        -0.811743
 H        -0.304689        -1.545793         0.469908
 H         2.476086        -0.161136         2.025796
 H         3.164454        -1.338623         0.893176
 H         4.807247         2.234450        -0.067924
 H         5.041438         0.830698         1.093971
 H         3.294836         1.451128        -1.918029
 H         1.536697        -0.854442        -1.996981
 H         2.800806        -1.500882        -0.988775
