19
Iteration:   784
 C        -0.053987        -0.471474         0.289373
 C         1.451055        -0.260860         0.027899
 C         2.634977        -0.393160         1.043855
 C         3.119873         0.802378         0.150191
 C         4.548195         1.223402         0.191512
 O         4.788267         0.233768        -0.861646
 C         3.356723         0.315019        -1.233747
 C         2.229011        -0.652194        -1.328130
 O         1.730768         1.298275         0.181716
 H        -0.252525         0.071779         1.172406
 H        -0.725849        -0.022157        -0.543250
 H        -0.430632        -1.577706         0.415949
 H         2.472937         0.060463         2.031674
 H         3.218952        -1.325607         0.983949
 H         4.848959         2.293993        -0.165201
 H         5.169096         0.879876         1.150861
 H         3.261948         0.983691        -2.135407
 H         1.561366        -0.396656        -2.168814
 H         2.469875        -1.756161        -1.381110
