19
Iteration:  2742charge 0 multiplicity 1
 C        -0.010904        -0.596983         0.346701
 C         1.420782        -0.142326         0.022747
 C         2.472464        -0.382554         1.044025
 C         3.149124         0.770645         0.162682
 C         4.610766         1.198742         0.220576
 O         4.784736         0.165612        -0.859603
 C         3.330353         0.334050        -1.207419
 C         2.205767        -0.701553        -1.327196
 O         1.795374         1.451341         0.077218
 H        -0.332066         0.096291         1.261192
 H        -0.575621        -0.443810        -0.628831
 H        -0.061335        -1.688304         0.510322
 H         2.167980         0.150758         1.979677
 H         3.093171        -1.295351         1.073003
 H         4.801073         2.206695        -0.259017
 H         5.226721         1.014733         1.021640
 H         3.377326         1.199078        -1.791653
 H         1.708776        -0.574904        -2.319143
 H         2.499550        -1.811346        -1.303630
