19
Iteration:   547charge 0 multiplicity 1
 C         0.041314        -0.583517         0.378972
 C         1.443857        -0.208102        -0.019757
 C         2.656583        -0.418235         0.956442
 C         3.113180         0.848688         0.166778
 C         4.635617         1.155822         0.271964
 O         4.775205         0.178851        -0.788927
 C         3.386088         0.383644        -1.295379
 C         2.095737        -0.564773        -1.353168
 O         1.662668         1.343446         0.121475
 H        -0.033596        -0.331759         1.368052
 H        -0.678609         0.077290        -0.171754
 H        -0.174891        -1.678392         0.184341
 H         2.333218        -0.213197         1.983690
 H         3.246983        -1.345004         0.864040
 H         4.991710         2.151848        -0.061135
 H         5.046685         0.921324         1.187245
 H         3.447073         1.080051        -2.036062
 H         1.472132        -0.240608        -2.234125
 H         2.200650        -1.656091        -1.503030
