19
Iteration:  3566
 C         0.001706        -0.521543         0.224396
 C         1.419810        -0.155247         0.012302
 C         2.593754        -0.380066         0.999045
 C         3.119881         0.880767         0.187786
 C         4.633557         1.225769         0.167158
 O         4.692912         0.144500        -0.845544
 C         3.345385         0.305499        -1.153343
 C         2.273945        -0.731145        -1.220369
 O         1.706229         1.367014         0.107100
 H        -0.437474         0.113556         1.095034
 H        -0.715754        -0.078080        -0.508112
 H        -0.098988        -1.583329         0.458086
 H         2.299452        -0.249988         2.151962
 H         3.096866        -1.328364         0.798419
 H         5.085174         2.142450        -0.379429
 H         5.241463         1.090232         1.023560
 H         3.137520         1.088089        -1.876483
 H         1.841894        -0.671975        -2.278508
 H         2.829359        -1.711131        -1.100539
