19
Iteration:    34
 C        -0.001910        -0.664501         0.208506
 C         1.428107        -0.109848         0.016375
 C         2.536024        -0.396005         1.079631
 C         3.107766         0.777089         0.225488
 C         4.577225         1.231166         0.039088
 O         4.862796         0.124970        -0.859670
 C         3.356526         0.302372        -1.158999
 C         2.093435        -0.538747        -1.267660
 O         1.812092         1.412196         0.172849
 H        -0.076656        -0.664502         1.255025
 H        -0.872369        -0.098246        -0.130827
 H        -0.099162        -1.712009        -0.117795
 H         2.252971        -0.007356         2.051077
 H         3.039049        -1.351111         1.044105
 H         4.615129         2.197141        -0.507073
 H         5.191672         1.209134         0.913384
 H         3.296424         1.168692        -1.730870
 H         1.608513        -0.497470        -2.246840
 H         2.412890        -1.571814        -1.077327
