19
Iteration:  1714charge 0 multiplicity 1
 C        -0.046271        -0.515034         0.159852
 C         1.474775        -0.225415        -0.012981
 C         2.663852        -0.373148         1.058832
 C         3.121127         0.842033         0.196929
 C         4.555863         1.255304         0.188646
 O         4.793571         0.118013        -0.831609
 C         3.323246         0.318252        -1.222916
 C         2.116007        -0.681614        -1.283151
 O         1.795943         1.373921         0.198482
 H        -0.251805        -0.113756         1.196032
 H        -0.694321        -0.081261        -0.545175
 H        -0.120392        -1.660322         0.204128
 H         2.248617        -0.119596         2.027954
 H         3.197923        -1.327645         1.058297
 H         4.541764         2.292665        -0.311199
 H         5.129692         1.146480         1.052401
 H         3.449833         1.207112        -1.876900
 H         1.484116        -0.376855        -2.233159
 H         2.410455        -1.801026        -1.290004
