19
Iteration:  1365charge 0 multiplicity 1
 C         0.010176        -0.484113         0.182349
 C         1.446368        -0.174456         0.024015
 C         2.693678        -0.394461         1.027663
 C         3.106709         0.872877         0.127499
 C         4.639264         1.249376         0.156793
 O         4.762018         0.137074        -0.779504
 C         3.315613         0.335078        -1.258389
 C         2.145075        -0.649629        -1.313063
 O         1.706364         1.270785         0.236470
 H        -0.390139        -0.177029         1.180991
 H        -0.637633        -0.021340        -0.473115
 H        -0.229105        -1.610330         0.103994
 H         2.394443        -0.064821         2.052166
 H         3.183121        -1.421924         1.077681
 H         4.936719         2.209410        -0.328172
 H         5.069443         1.096642         1.234896
 H         3.239543         1.120435        -1.978509
 H         1.506202        -0.552582        -2.216717
 H         2.479096        -1.678371        -1.152433
