19
Iteration:   317charge 0 multiplicity 1
 C         0.078279        -0.689551         0.335942
 C         1.392819        -0.105055        -0.000125
 C         2.465043        -0.373971         0.991056
 C         3.206643         0.737135         0.275244
 C         4.657229         1.157233         0.152932
 O         4.879297         0.231702        -0.912547
 C         3.326738         0.274578        -1.141017
 C         2.069782        -0.595994        -1.292177
 O         1.710924         1.459343         0.065222
 H        -0.220305        -0.199665         1.252104
 H        -0.672870        -0.485011        -0.459480
 H         0.146368        -1.829910         0.596318
 H         2.117852        -0.127237         2.010736
 H         3.039717        -1.298139         1.011066
 H         4.783117         2.275342        -0.100145
 H         5.289952         0.888958         0.973180
 H         3.238549         1.249067        -1.848556
 H         1.563187        -0.270014        -2.162041
 H         2.242853        -1.624241        -1.410641
