19
Iteration:  2997charge 0 multiplicity 1
 C         0.101290        -0.462106         0.310700
 C         1.489661        -0.120154        -0.019766
 C         2.668159        -0.353168         1.005335
 C         3.084047         0.899944         0.134161
 C         4.566373         1.179145         0.191022
 O         4.723829         0.090301        -0.735555
 C         3.308470         0.329487        -1.240001
 C         2.202036        -0.712590        -1.332335
 O         1.685286         1.338538         0.093359
 H         0.005030        -0.364073         1.393796
 H        -0.739826         0.043843        -0.261257
 H        -0.282891        -1.511168        -0.072875
 H         2.434447        -0.053590         2.012957
 H         3.218006        -1.306228         0.837694
 H         4.771754         2.213198        -0.124893
 H         4.959243         0.926303         1.253218
 H         3.474210         1.134451        -1.952562
 H         1.352320        -0.853754        -2.078495
 H         2.547610        -1.732052        -1.151164
