19
Iteration:   807
 C         0.005750        -0.509786         0.335961
 C         1.404516        -0.144577        -0.008501
 C         2.534095        -0.442212         1.019217
 C         3.194250         0.702604         0.257452
 C         4.551809         1.241689         0.256011
 O         4.880544         0.296354        -0.920564
 C         3.340216         0.347278        -1.151019
 C         2.055866        -0.730875        -1.329648
 O         1.827386         1.363373         0.040646
 H        -0.405639        -0.127213         1.233632
 H        -0.742271        -0.327759        -0.538648
 H         0.031345        -1.722592         0.354433
 H         2.210452        -0.104273         2.023527
 H         3.023011        -1.414710         0.923163
 H         4.679322         2.363679        -0.120563
 H         5.362092         0.958753         1.074776
 H         3.083950         1.227198        -1.887078
 H         1.431045        -0.683908        -2.269625
 H         2.297863        -1.804829        -1.100324
