19
Iteration:  2257
 C         0.032760        -0.501783         0.361807
 C         1.419529        -0.132199         0.026944
 C         2.606110        -0.405166         0.934362
 C         3.115503         0.779350         0.180479
 C         4.584763         1.205505         0.207667
 O         4.811810         0.146147        -0.784691
 C         3.314873         0.295763        -1.213870
 C         2.153722        -0.656831        -1.304481
 O         1.747293         1.403691         0.026882
 H        -0.170232        -0.467660         1.431287
 H        -0.666182         0.086674        -0.125885
 H        -0.147633        -1.596716         0.125653
 H         2.328461        -0.144181         1.975397
 H         3.065431        -1.418880         0.869297
 H         4.775560         2.237148        -0.081316
 H         5.224155         0.916960         1.155846
 H         3.230489         1.176764        -1.978859
 H         1.628247        -0.417773        -2.226674
 H         2.387941        -1.699794        -1.166590
