19
Iteration:  1347charge 0 multiplicity 1
 C         0.043104        -0.454929         0.197163
 C         1.519689        -0.252687         0.040590
 C         2.666254        -0.347294         0.947727
 C         3.141096         0.836219         0.280264
 C         4.601707         1.216567         0.184139
 O         4.778333         0.139541        -0.845676
 C         3.253025         0.378242        -1.177350
 C         2.137680        -0.724401        -1.304275
 O         1.628546         1.302649         0.199196
 H        -0.395118         0.293642         0.957491
 H        -0.279951        -0.015567        -0.831304
 H        -0.228907        -1.420292         0.231315
 H         2.484491        -0.100484         2.022602
 H         3.434648        -1.108704         0.887089
 H         4.705002         2.196490        -0.198698
 H         5.341244         0.931897         0.927790
 H         3.282589         1.096442        -1.978555
 H         1.566650        -0.494504        -2.220773
 H         2.549712        -1.796946        -1.292252
