19
Iteration:  3946
 C        -0.040347        -0.457215         0.250542
 C         1.449672        -0.176181         0.111619
 C         2.691265        -0.348142         0.981888
 C         3.135317         0.826550         0.160578
 C         4.645695         1.179227         0.286444
 O         4.797034         0.270175        -0.901209
 C         3.339377         0.320073        -1.169383
 C         2.134247        -0.733975        -1.270827
 O         1.662509         1.276240         0.020017
 H        -0.375018         0.076290         1.145753
 H        -0.529507        -0.098291        -0.614357
 H        -0.231788        -1.479931         0.529752
 H         2.266327        -0.237622         2.029185
 H         3.275379        -1.218335         1.003018
 H         5.118675         2.179891         0.018716
 H         5.116160         0.786854         1.159466
 H         3.090758         1.072389        -1.913390
 H         1.562480        -0.868838        -2.188299
 H         2.418255        -1.791760        -1.115363
