19
Iteration:  4959
 C        -0.004129        -0.525075         0.246367
 C         1.441154        -0.160682         0.027440
 C         2.569129        -0.335751         1.011289
 C         3.068775         0.738447         0.179878
 C         4.643226         1.196491         0.168128
 O         4.863380         0.193488        -0.794178
 C         3.349890         0.292631        -1.127712
 C         2.069427        -0.715650        -1.347300
 O         1.772515         1.409842         0.086091
 H        -0.316764         0.087480         1.061031
 H        -0.729802        -0.466639        -0.611140
 H         0.002324        -1.650688         0.677125
 H         2.362496        -0.029982         2.066249
 H         3.132536        -1.291324         0.936335
 H         4.765836         2.107556        -0.351375
 H         5.241526         1.136258         1.155954
 H         3.280982         1.214513        -1.736025
 H         1.562898        -0.365142        -2.322569
 H         2.205169        -1.795753        -1.271796
