19
Iteration:  3396
 C         0.012596        -0.470813         0.209069
 C         1.431391        -0.185258        -0.020036
 C         2.614229        -0.333432         1.047447
 C         3.124288         0.803678         0.219357
 C         4.603201         1.313512         0.133428
 O         4.706518         0.087570        -0.777484
 C         3.289882         0.388224        -1.217210
 C         2.174735        -0.790336        -1.277765
 O         1.818632         1.332131         0.142606
 H        -0.318523         0.109567         1.099235
 H        -0.605785        -0.367487        -0.720651
 H        -0.176134        -1.539742         0.419871
 H         2.268425         0.074089         1.984383
 H         3.110633        -1.317600         1.005412
 H         4.692874         2.344982        -0.226276
 H         5.378334         1.012254         1.000978
 H         3.293980         1.197353        -1.973449
 H         1.635692        -0.732420        -2.267991
 H         2.640862        -1.722136        -1.119546
