19
Iteration:  3641charge 0 multiplicity 1
 C         0.087077        -0.531279         0.244725
 C         1.426906        -0.162923        -0.022762
 C         2.620504        -0.362988         0.959539
 C         3.096165         0.841310         0.222795
 C         4.542020         1.301398         0.149655
 O         4.818993         0.045932        -0.754916
 C         3.295337         0.287996        -1.185487
 C         2.174408        -0.658017        -1.296794
 O         1.737835         1.381625         0.106153
 H        -0.248551        -0.096679         1.273682
 H        -0.653052        -0.027350        -0.404011
 H         0.056714        -1.605679         0.370163
 H         2.523557        -0.195249         2.122111
 H         3.054647        -1.323342         1.028064
 H         4.647660         2.324618        -0.442348
 H         5.107987         1.353818         1.044062
 H         3.309649         1.010680        -1.975918
 H         1.505182        -0.607845        -2.105518
 H         2.207966        -1.778750        -1.218393
