19
Iteration:  1576charge 0 multiplicity 1
 C         0.094344        -0.606318         0.260260
 C         1.450613        -0.095643         0.025680
 C         2.623751        -0.356908         0.987353
 C         3.139529         0.760301         0.219396
 C         4.603648         1.203297         0.161536
 O         4.823143         0.102225        -0.783698
 C         3.301011         0.322557        -1.144562
 C         2.109312        -0.562239        -1.343884
 O         1.661234         1.352711         0.086471
 H        -0.083852        -0.486245         1.285427
 H        -0.563731         0.156160        -0.161105
 H        -0.097798        -1.543472        -0.030678
 H         2.361341        -0.013989         2.010079
 H         3.115015        -1.355716         1.048551
 H         4.560928         2.061495        -0.374642
 H         5.137546         1.183185         1.174763
 H         3.349475         1.030685        -1.899763
 H         1.638096        -0.183315        -2.199009
 H         2.293966        -1.627976        -1.513855
