19
Iteration:  3885
 C         0.004956        -0.554670         0.210843
 C         1.444902        -0.137484         0.086168
 C         2.665388        -0.404258         0.971159
 C         3.084426         0.909986         0.145057
 C         4.649087         1.250380         0.098211
 O         4.754928         0.118190        -0.764700
 C         3.346878         0.233687        -1.156620
 C         2.165792        -0.672636        -1.247956
 O         1.692564         1.412462         0.138952
 H        -0.268392        -0.220530         1.230078
 H        -0.794976        -0.264105        -0.605687
 H        -0.080369        -1.710720         0.165141
 H         2.369137        -0.345257         2.003873
 H         3.236491        -1.432680         0.792875
 H         4.751082         2.192770        -0.452785
 H         5.314288         1.118165         1.037174
 H         3.299497         1.130228        -1.847478
 H         1.686448        -0.241063        -2.230215
 H         2.315896        -1.730741        -1.185747
