19
Iteration:   210charge 0 multiplicity 1
 C         0.034125        -0.634575         0.314943
 C         1.429383        -0.129088        -0.012229
 C         2.595871        -0.326682         1.081773
 C         3.184160         0.744638         0.244177
 C         4.572434         1.205604         0.239870
 O         4.792394         0.184380        -0.913082
 C         3.305265         0.327594        -1.186984
 C         2.114374        -0.619467        -1.321394
 O         1.799658         1.373878         0.023186
 H        -0.076560        -0.629574         1.314568
 H        -0.852321        -0.008441        -0.090955
 H        -0.149119        -1.694344         0.001402
 H         2.216930         0.139576         1.979565
 H         2.944140        -1.308507         1.238937
 H         4.764603         2.310057         0.000010
 H         5.159408         0.855818         0.997038
 H         3.151055         1.127415        -1.802396
 H         1.542917        -0.375554        -2.233161
 H         2.332638        -1.679556        -1.323135
