19
Iteration:   222
 C        -0.081110        -0.623743         0.360069
 C         1.401792        -0.195026         0.014470
 C         2.534597        -0.414012         1.157363
 C         3.138774         0.715094         0.209832
 C         4.543006         1.277834         0.198333
 O         4.928317         0.170933        -0.935945
 C         3.387135         0.359059        -1.246243
 C         2.096052        -0.561396        -1.313307
 O         1.836328         1.380802         0.035648
 H        -0.240332        -0.592682         1.329489
 H        -0.877380         0.055387        -0.177477
 H        -0.195906        -1.649339        -0.034880
 H         2.227418        -0.081777         2.131048
 H         3.037637        -1.349425         1.173333
 H         4.648037         2.312898        -0.268648
 H         5.081466         1.190580         1.094772
 H         3.427757         1.151641        -1.843096
 H         1.310242        -0.457586        -2.094675
 H         2.441482        -1.617567        -1.305535
