19
Iteration:  4087
 C        -0.090967        -0.520646         0.332599
 C         1.379078        -0.176216         0.037591
 C         2.582086        -0.356342         1.038510
 C         3.106640         0.798729         0.257400
 C         4.674755         1.195957         0.173829
 O         4.871002         0.237535        -0.888659
 C         3.337859         0.345052        -1.125352
 C         2.146404        -0.685002        -1.310221
 O         1.744441         1.283132        -0.023852
 H        -0.399868        -0.157084         1.353909
 H        -0.715568        -0.153138        -0.501519
 H        -0.211979        -1.646109         0.447371
 H         2.297136        -0.028552         2.088693
 H         3.178448        -1.207778         1.070348
 H         4.635022         2.301964        -0.094721
 H         5.433687         0.952998         0.922838
 H         3.359282         1.198101        -1.817690
 H         1.947806        -0.568286        -2.383724
 H         2.327148        -1.757859        -1.171333
