19
Iteration:  3425
 C        -0.018533        -0.548638         0.225503
 C         1.389449        -0.100651         0.060946
 C         2.535806        -0.332470         1.093788
 C         3.145502         0.785241         0.214083
 C         4.604494         1.304157         0.113901
 O         4.894122         0.128808        -0.904178
 C         3.402563         0.239449        -1.154354
 C         2.143591        -0.711229        -1.257301
 O         1.694747         1.344140         0.112395
 H        -0.622863         0.017329         0.986590
 H        -0.591601        -0.267439        -0.646003
 H        -0.046208        -1.585222         0.492000
 H         2.305071         0.038418         2.198604
 H         2.953139        -1.304469         0.954001
 H         4.820451         2.358925        -0.065267
 H         5.312779         0.970032         0.912744
 H         3.351699         1.088200        -1.931715
 H         1.773262        -0.194656        -2.175617
 H         2.218630        -1.838405        -1.443108
