19
Iteration:  2045charge 0 multiplicity 1
 C        -0.045119        -0.486763         0.219753
 C         1.477769        -0.201275         0.057189
 C         2.661910        -0.375050         1.040535
 C         3.108535         0.842347         0.155597
 C         4.644257         1.200847         0.181514
 O         4.771768         0.147935        -0.827293
 C         3.280267         0.388941        -1.216638
 C         2.171149        -0.702643        -1.342764
 O         1.701701         1.313409         0.167343
 H        -0.445187         0.064208         1.022415
 H        -0.662290        -0.171280        -0.707149
 H        -0.355655        -1.415247         0.506780
 H         2.652775         0.083200         2.032595
 H         3.233294        -1.256147         0.964352
 H         5.100242         2.154640        -0.015697
 H         5.137386         0.786189         1.147246
 H         3.306061         1.309936        -1.957782
 H         1.533835        -0.716976        -2.272645
 H         2.662991        -1.735594        -1.130866
