19
Iteration:   194charge 0 multiplicity 1
 C         0.103976        -0.568447         0.309405
 C         1.446933        -0.154347         0.016742
 C         2.520274        -0.315033         1.008127
 C         3.061430         0.910518         0.192490
 C         4.710599         1.100472         0.185125
 O         4.745836         0.208070        -0.880206
 C         3.355177         0.316971        -1.172836
 C         2.174777        -0.676865        -1.332365
 O         1.664217         1.338743         0.143479
 H        -0.326517        -0.532126         1.467436
 H        -0.547444        -0.010142        -0.296614
 H         0.115436        -1.573611        -0.129556
 H         2.235353        -0.015279         2.046138
 H         3.276365        -1.173930         0.888565
 H         5.046831         2.004744        -0.252540
 H         5.244864         0.815758         1.206939
 H         3.355975         1.196254        -2.024406
 H         1.534883        -0.550867        -2.208472
 H         2.347808        -1.781412        -1.218174
