19
Iteration:   488charge 0 multiplicity 1
 C         0.018050        -0.544233         0.213594
 C         1.471119        -0.174746         0.042275
 C         2.704211        -0.397012         0.932955
 C         3.120642         0.901950         0.246337
 C         4.612786         1.197166         0.169838
 O         4.789182         0.128985        -0.833407
 C         3.283525         0.394258        -1.199121
 C         2.091777        -0.652501        -1.341243
 O         1.705299         1.323184         0.249930
 H        -0.546831         0.059708         1.062901
 H        -0.425017        -0.343444        -0.734930
 H        -0.146733        -1.596917         0.444500
 H         2.366374        -0.368241         1.990066
 H         3.310113        -1.286373         0.701638
 H         4.790865         2.127196        -0.264195
 H         5.221637         1.128179         1.171830
 H         3.269437         0.992680        -2.128555
 H         1.462595        -0.429390        -2.248446
 H         2.487648        -1.731661        -1.255353
