19
Iteration:  2339
 C         0.079816        -0.517430         0.246776
 C         1.472218        -0.263549         0.032069
 C         2.628482        -0.334757         1.011841
 C         3.073426         0.869200         0.161983
 C         4.581682         1.147912         0.199980
 O         4.736731         0.118575        -0.814885
 C         3.276471         0.364493        -1.266602
 C         2.139463        -0.713639        -1.356603
 O         1.788176         1.451933         0.229926
 H        -0.366863         0.160128         1.089382
 H        -0.592935        -0.384239        -0.700689
 H        -0.067532        -1.586749         0.442286
 H         2.266012         0.047899         1.978694
 H         3.217702        -1.277961         1.108824
 H         4.844551         2.131078        -0.297602
 H         5.112798         1.019802         1.102790
 H         3.334354         1.136640        -2.031576
 H         1.631558        -0.760170        -2.317254
 H         2.529885        -1.755807        -1.192565
