19
Iteration:  3183
 C        -0.049770        -0.477046         0.243600
 C         1.459646        -0.184418         0.149272
 C         2.718660        -0.334902         0.993426
 C         3.112177         0.917512         0.133015
 C         4.559054         1.242264         0.227278
 O         4.847152         0.080430        -0.793282
 C         3.388813         0.275987        -1.205991
 C         2.101231        -0.699830        -1.285120
 O         1.660364         1.339355         0.070313
 H        -0.324347        -0.261176         1.218760
 H        -0.653471         0.002735        -0.500018
 H        -0.179973        -1.507478        -0.091847
 H         2.569202        -0.069980         2.006964
 H         3.424171        -1.141846         0.995146
 H         4.780317         2.196604        -0.245400
 H         4.999535         0.906017         1.119851
 H         3.273016         0.921534        -2.128880
 H         1.528148        -0.358700        -2.171439
 H         2.313161        -1.796903        -1.523613
