19
Iteration:  3607charge 0 multiplicity 1
 C        -0.048864        -0.526840         0.272536
 C         1.378125        -0.224616         0.072553
 C         2.512851        -0.372376         1.102961
 C         3.110904         0.855311         0.146678
 C         4.638938         1.232907         0.192992
 O         4.893760         0.212890        -0.876042
 C         3.373455         0.294455        -1.223222
 C         2.178841        -0.678728        -1.278636
 O         1.754748         1.295562         0.060672
 H        -0.297545         0.087255         1.197080
 H        -0.661212        -0.290574        -0.607208
 H        -0.196335        -1.620799         0.397007
 H         2.341943         0.312736         1.988424
 H         3.014876        -1.306722         1.103697
 H         4.892967         2.348366        -0.060256
 H         5.071170         0.969797         1.138097
 H         3.345760         0.897171        -2.126127
 H         1.581549        -0.215994        -1.985604
 H         2.133058        -1.797834        -1.260920
