19
Iteration:  1943charge 0 multiplicity 1
 C         0.024318        -0.540059         0.220729
 C         1.463183        -0.216228         0.012864
 C         2.790352        -0.365262         0.987098
 C         3.083578         0.923002         0.127067
 C         4.613348         1.228731         0.214667
 O         4.716923         0.038462        -0.757759
 C         3.337437         0.347869        -1.207024
 C         2.116348        -0.634027        -1.279783
 O         1.641429         1.399085         0.138870
 H        -0.316129        -0.438453         1.284359
 H        -0.656559         0.032688        -0.377350
 H        -0.332680        -1.593440        -0.098661
 H         2.487359        -0.288807         2.039634
 H         3.486703        -1.205528         0.708427
 H         5.132970         2.168139        -0.268892
 H         5.114055         0.966954         1.078042
 H         3.286241         1.271773        -1.916593
 H         1.711965        -0.739557        -2.313115
 H         2.530150        -1.618067        -0.965189
