19
Iteration:  3178
 C        -0.041861        -0.505014         0.238095
 C         1.459904        -0.182322         0.118400
 C         2.702652        -0.319437         0.981900
 C         3.109103         0.891711         0.119608
 C         4.581439         1.239051         0.206970
 O         4.873475         0.084374        -0.753602
 C         3.340555         0.249334        -1.247647
 C         2.107719        -0.681558        -1.292362
 O         1.658567         1.371059         0.101596
 H        -0.443560        -0.313991         1.314580
 H        -0.712964         0.045403        -0.491786
 H        -0.183598        -1.562550        -0.068585
 H         2.559267        -0.079017         2.092812
 H         3.357530        -1.268303         1.082655
 H         4.851363         2.152264        -0.378041
 H         5.141995         1.020127         1.198086
 H         3.300907         0.994406        -2.079920
 H         1.335425        -0.423984        -2.113625
 H         2.495126        -1.669793        -1.447853
