19
Iteration:  2068charge 0 multiplicity 1
 C         0.040871        -0.560452         0.219830
 C         1.406169        -0.150758         0.008532
 C         2.532645        -0.355597         1.028519
 C         3.108985         0.771953         0.296306
 C         4.639954         1.239579         0.115010
 O         4.801921         0.132506        -0.887292
 C         3.391421         0.278865        -1.134421
 C         2.132056        -0.597326        -1.239416
 O         1.734691         1.340587         0.108562
 H        -0.409901        -0.293472         1.196889
 H        -0.639304        -0.144973        -0.573371
 H        -0.092109        -1.591007         0.224517
 H         2.324133         0.002633         2.044693
 H         3.209316        -1.208359         0.977458
 H         4.774278         2.203543        -0.332581
 H         5.409906         1.145533         1.002660
 H         3.375490         1.133103        -1.943505
 H         1.627697        -0.120688        -2.111729
 H         2.137717        -1.731585        -1.383711
