19
Iteration:  4152charge 0 multiplicity 1
 C         0.002367        -0.480334         0.201187
 C         1.422926        -0.269810         0.083819
 C         2.640414        -0.367179         0.957354
 C         3.074233         0.968361         0.226705
 C         4.710755         1.243671         0.123289
 O         4.753134         0.102611        -0.778418
 C         3.349234         0.329755        -1.201352
 C         2.193990        -0.658324        -1.248337
 O         1.656720         1.286449         0.107257
 H        -0.278328        -0.022712         1.202764
 H        -0.648864        -0.025624        -0.592760
 H        -0.233175        -1.599983         0.233970
 H         2.382206        -0.285607         2.062145
 H         3.419236        -1.077204         0.979928
 H         4.939495         2.194313        -0.332036
 H         5.377966         1.148277         0.958466
 H         3.158408         1.060576        -2.065630
 H         1.579414        -0.600010        -2.186948
 H         2.343046        -1.730184        -1.058453
