19
Iteration:  2719
 C         0.019915        -0.455400         0.296084
 C         1.468996        -0.174195        -0.031375
 C         2.618395        -0.320643         1.100205
 C         3.109864         0.910709         0.195748
 C         4.609914         1.147555         0.179913
 O         4.815453         0.128630        -0.870238
 C         3.329158         0.363832        -1.186883
 C         2.160342        -0.654182        -1.318902
 O         1.645327         1.223039         0.096415
 H        -0.211125         0.335220         1.138790
 H        -0.653671        -0.489098        -0.642158
 H        -0.093866        -1.518020         0.665185
 H         2.231259         0.100758         2.064349
 H         3.187988        -1.234925         1.069018
 H         4.885035         2.197753        -0.071904
 H         5.051943         0.792902         1.056209
 H         3.564101         1.141220        -1.871314
 H         1.726238        -0.505911        -2.331771
 H         2.464681        -1.778615        -1.343121
