19
Iteration:  4648
 C         0.007013        -0.553347         0.248319
 C         1.445764        -0.213831         0.059778
 C         2.572848        -0.285427         1.036325
 C         3.100053         0.823883         0.219484
 C         4.595080         1.166186         0.168291
 O         4.800131         0.140717        -0.824695
 C         3.340718         0.320841        -1.217361
 C         2.131064        -0.603046        -1.276652
 O         1.776735         1.317900         0.085939
 H        -0.464253         0.075132         1.063730
 H        -0.451759        -0.237302        -0.672238
 H        -0.371186        -1.496262         0.397541
 H         2.576561        -0.068201         2.159743
 H         3.193759        -1.178810         0.920619
 H         4.856025         2.187947        -0.408053
 H         5.222047         1.123022         1.058650
 H         3.345820         0.958462        -2.106337
 H         1.519583        -0.328768        -2.114819
 H         2.361411        -1.756224        -1.162633
