19
Iteration:   125charge 0 multiplicity 1
 C        -0.008620        -0.574050         0.346208
 C         1.380769        -0.165446        -0.028090
 C         2.518458        -0.397604         0.949673
 C         3.129117         0.750969         0.272261
 C         4.582259         1.290501         0.163741
 O         4.916654         0.191596        -0.882325
 C         3.445590         0.251847        -1.148026
 C         2.071205        -0.608041        -1.353055
 O         1.771325         1.354705         0.180074
 H        -0.412237         0.077853         1.101246
 H        -0.724669        -0.526068        -0.585013
 H         0.088443        -1.611536         0.670952
 H         2.129210        -0.125100         1.919217
 H         3.005874        -1.357742         0.916223
 H         4.421171         2.245940        -0.409817
 H         5.378031         1.393577         0.876086
 H         3.339092         1.156836        -1.827010
 H         1.523860        -0.300505        -2.321515
 H         2.154458        -1.790065        -1.360941
