19
Iteration:  4273
 C        -0.003660        -0.513362         0.198862
 C         1.483820        -0.132095         0.009480
 C         2.619533        -0.341546         1.020953
 C         3.087038         0.809399         0.231788
 C         4.602562         1.238823         0.095322
 O         4.835902         0.167836        -0.818085
 C         3.342026         0.247808        -1.106202
 C         2.155449        -0.700825        -1.317100
 O         1.726919         1.333129         0.130683
 H        -0.311795         0.080373         1.052272
 H        -0.613771        -0.337542        -0.744205
 H        -0.198502        -1.547967         0.655336
 H         2.351744        -0.031919         2.026953
 H         3.239160        -1.257741         1.078675
 H         4.659386         2.251095        -0.353367
 H         5.204433         1.163551         0.956318
 H         3.112833         1.036912        -1.912742
 H         1.378396        -0.468825        -2.134689
 H         2.066217        -1.720397        -1.051355
