19
Iteration:  4219
 C         0.039423        -0.583576         0.360468
 C         1.450445        -0.083142        -0.024432
 C         2.606573        -0.303572         0.966295
 C         3.050854         0.859896         0.152652
 C         4.675260         1.237788         0.251777
 O         4.831509         0.086870        -0.801146
 C         3.318531         0.238735        -1.168674
 C         2.164753        -0.700004        -1.350630
 O         1.648888         1.409997         0.094879
 H        -0.306264        -0.187315         1.321246
 H        -0.773612        -0.263034        -0.418908
 H         0.153341        -1.720396         0.169711
 H         2.247037        -0.170358         1.977074
 H         3.349850        -1.084058         0.758772
 H         5.014277         2.192995        -0.197811
 H         5.249887         1.151001         1.117665
 H         3.253190         0.938966        -2.095530
 H         1.443445        -0.579814        -2.278895
 H         2.338065        -1.735609        -1.128369
