19
Iteration:  3459
 C         0.019549        -0.524149         0.316196
 C         1.467448        -0.206917         0.006146
 C         2.584939        -0.315676         1.025723
 C         3.091861         0.864870         0.147243
 C         4.519541         1.190975         0.184353
 O         4.825963         0.103283        -0.798469
 C         3.337669         0.333144        -1.227002
 C         2.202026        -0.691642        -1.277491
 O         1.720175         1.388712         0.058578
 H        -0.143630        -0.034064         1.313960
 H        -0.580434        -0.106456        -0.507740
 H        -0.200277        -1.566411         0.362250
 H         2.465316         0.037539         2.112998
 H         3.225280        -1.183027         1.139162
 H         4.821727         2.197745        -0.067747
 H         5.021869         0.698602         1.069493
 H         3.260617         1.172895        -2.022323
 H         1.549402        -0.642374        -2.236443
 H         2.492549        -1.769790        -1.258486
