19
Iteration:   600charge 0 multiplicity 1
 C         0.055476        -0.533174         0.212516
 C         1.430727        -0.244017         0.016752
 C         2.510472        -0.366169         1.036420
 C         3.148489         0.815378         0.224322
 C         4.671170         1.231058         0.147417
 O         4.765473         0.209649        -0.944532
 C         3.320507         0.334894        -1.147946
 C         2.127638        -0.618449        -1.298447
 O         1.779830         1.289199         0.251809
 H        -0.292435        -0.373349         1.128653
 H        -0.547206        -0.004053        -0.580505
 H        -0.013522        -1.678910        -0.030547
 H         2.114842         0.008380         1.988401
 H         2.962566        -1.372310         1.143084
 H         4.811178         2.224401        -0.219346
 H         5.264820         1.091185         1.028946
 H         3.206853         1.188375        -1.804931
 H         1.576291        -0.263031        -2.258831
 H         2.348390        -1.754445        -1.427576
