19
Iteration:  1682charge 0 multiplicity 1
 C        -0.056188        -0.566229         0.220081
 C         1.405515        -0.083970         0.008617
 C         2.530291        -0.383969         1.039124
 C         3.180404         0.717428         0.261275
 C         4.632795         1.189753         0.165644
 O         4.871760         0.217731        -0.927145
 C         3.419431         0.289980        -1.139284
 C         2.159802        -0.626871        -1.265654
 O         1.707584         1.370126         0.124292
 H        -0.489375        -0.093880         1.193188
 H        -0.823976        -0.512624        -0.603191
 H         0.011770        -1.708964         0.546457
 H         2.201593        -0.136008         2.042832
 H         2.933288        -1.393809         0.961516
 H         4.573554         2.313212        -0.111946
 H         5.413044         1.180276         0.911671
 H         3.160363         1.097702        -1.932205
 H         1.574310        -0.333755        -2.214179
 H         2.246660        -1.764976        -1.255598
