19
Iteration:  4639
 C        -0.024011        -0.525613         0.212142
 C         1.448406        -0.170814         0.072589
 C         2.652855        -0.357370         1.044516
 C         3.146431         0.849160         0.138186
 C         4.584106         1.216404         0.145852
 O         4.772207         0.117255        -0.780372
 C         3.321111         0.310308        -1.234369
 C         2.118276        -0.726158        -1.288364
 O         1.729444         1.402887         0.173790
 H        -0.410720         0.212065         0.897761
 H        -0.444591        -0.332015        -0.793557
 H        -0.099743        -1.573367         0.449497
 H         2.489922        -0.011890         2.070754
 H         3.359772        -1.195696         0.997539
 H         4.889712         2.228602        -0.130095
 H         5.218025         0.917475         1.022780
 H         3.380754         1.083719        -2.041514
 H         1.536481        -0.540400        -2.164607
 H         2.411307        -1.778976        -1.511194
