19
Iteration:  2422charge 0 multiplicity 1
 C        -0.041157        -0.464268         0.250780
 C         1.423114        -0.105491         0.089491
 C         2.728128        -0.366917         1.014593
 C         3.105663         0.812916         0.173394
 C         4.557199         1.231448         0.146716
 O         4.724188         0.115151        -0.785060
 C         3.339549         0.326711        -1.287064
 C         2.229554        -0.753148        -1.364498
 O         1.693939         1.362962         0.219876
 H        -0.336082        -0.298937         1.189063
 H        -0.518514         0.203598        -0.369001
 H        -0.166089        -1.543749         0.059721
 H         2.595687        -0.266011         2.085095
 H         3.283613        -1.236297         0.697866
 H         4.864444         2.181693        -0.267951
 H         5.040494         1.065847         1.157987
 H         3.439445         1.000701        -2.130243
 H         1.683346        -0.740530        -2.321818
 H         2.639830        -1.706508        -1.160442
