19
Iteration:  3381charge 0 multiplicity 1
 C         0.016217        -0.453489         0.236164
 C         1.489750        -0.149860         0.066336
 C         2.660381        -0.405004         0.997338
 C         3.112736         0.885254         0.175488
 C         4.601832         1.242745         0.194671
 O         4.705094         0.119395        -0.818200
 C         3.322704         0.250993        -1.152937
 C         2.249154        -0.704895        -1.282663
 O         1.661323         1.348611         0.066061
 H        -0.434210         0.093958         1.074047
 H        -0.493748        -0.042708        -0.598499
 H        -0.114337        -1.502457         0.400502
 H         2.441449        -0.199923         2.109727
 H         3.273483        -1.282451         0.881302
 H         5.040465         2.086906        -0.383331
 H         5.034985         1.207048         1.195755
 H         3.160643         1.046858        -1.959583
 H         1.647915        -0.588861        -2.180928
 H         2.470930        -1.813345        -1.145240
