19
Iteration:  3219charge 0 multiplicity 1
 C         0.004647        -0.441883         0.329635
 C         1.424279        -0.201233        -0.001675
 C         2.521446        -0.374694         1.034380
 C         3.104238         0.796368         0.209953
 C         4.589765         1.235306         0.174976
 O         4.878452         0.136099        -0.846395
 C         3.318009         0.400617        -1.222131
 C         2.188843        -0.789347        -1.350369
 O         1.731778         1.358461         0.076954
 H        -0.375637        -0.034052         1.346229
 H        -0.670115         0.032514        -0.377109
 H        -0.092668        -1.516401         0.487996
 H         2.219849         0.013620         2.061132
 H         3.017243        -1.322895         1.175928
 H         4.634770         2.262323        -0.079144
 H         5.236231         1.115772         1.153469
 H         3.496363         1.077202        -1.974686
 H         1.736858        -0.749246        -2.284390
 H         2.547781        -1.811401        -1.130475
