19
Iteration:   873
 C         0.134509        -0.553168         0.257095
 C         1.499902        -0.169033         0.052858
 C         2.703541        -0.369285         0.935070
 C         3.043957         0.975438         0.208179
 C         4.575368         1.199175         0.133326
 O         4.680180         0.058930        -0.755485
 C         3.334423         0.329341        -1.219672
 C         2.157004        -0.606192        -1.303178
 O         1.657401         1.301986         0.182797
 H        -0.460119        -0.174765         1.077177
 H        -0.336813        -0.069394        -0.661344
 H         0.078618        -1.688765        -0.097832
 H         2.599566        -0.106290         2.004998
 H         3.300008        -1.269759         0.803022
 H         4.902088         2.276266        -0.301201
 H         4.999627         0.950981         1.182270
 H         3.630304         1.110075        -1.984504
 H         1.444313        -0.308537        -2.136282
 H         2.376217        -1.689493        -1.306743
