19
Iteration:  4424
 C        -0.050154        -0.496218         0.341679
 C         1.487410        -0.210669         0.056028
 C         2.658214        -0.335193         1.014730
 C         3.076376         0.906257         0.192672
 C         4.570429         1.223239         0.244126
 O         4.806487         0.067234        -0.844439
 C         3.352473         0.291024        -1.198295
 C         2.246892        -0.637198        -1.342128
 O         1.654106         1.327801         0.031386
 H        -0.320137         0.200102         1.062563
 H        -0.795246        -0.199378        -0.404212
 H        -0.264595        -1.530898         0.701527
 H         2.403661         0.200183         1.937708
 H         3.155614        -1.358092         1.000483
 H         4.920545         2.281913        -0.029958
 H         5.249515         0.655913         0.978280
 H         3.293850         1.060298        -1.975754
 H         1.560138        -0.428495        -2.258858
 H         2.653616        -1.617881        -1.537849
