19
Iteration:   740
 C        -0.034650        -0.671276         0.253626
 C         1.457270        -0.198784         0.068746
 C         2.647870        -0.362798         1.032490
 C         3.081529         0.888692         0.193715
 C         4.616806         1.259243         0.123109
 O         4.693659         0.050830        -0.771488
 C         3.406079         0.398055        -1.236922
 C         2.124188        -0.633839        -1.333327
 O         1.814791         1.420184         0.154079
 H        -0.376101        -0.603398         1.281821
 H        -0.817104        -0.224555        -0.480083
 H         0.065587        -1.836707         0.017924
 H         2.384239        -0.032311         2.040811
 H         3.165337        -1.329313         0.907696
 H         4.757884         2.311820        -0.369017
 H         5.306602         1.155308         1.113066
 H         3.310413         1.274749        -2.006330
 H         1.507516        -0.181126        -2.119653
 H         2.299960        -1.738616        -1.546723
