19
Iteration:  4701
 C         0.005907        -0.517722         0.334600
 C         1.403843        -0.173750        -0.032174
 C         2.591989        -0.391280         0.957858
 C         3.094966         0.836645         0.155069
 C         4.530200         1.243817         0.220780
 O         4.801227         0.089273        -0.835683
 C         3.405538         0.353803        -1.223030
 C         2.176023        -0.684052        -1.234190
 O         1.751096         1.395525         0.097822
 H        -0.293657        -0.613490         1.448054
 H        -0.734680         0.139593        -0.096720
 H        -0.251320        -1.475336        -0.076720
 H         2.401495         0.157174         1.983165
 H         3.277136        -1.237664         1.065342
 H         4.976027         2.178000        -0.208636
 H         4.940619         0.873200         1.111643
 H         3.405741         0.982957        -2.093287
 H         1.667660        -0.522297        -2.175536
 H         2.598798        -1.764115        -1.129016
