19
Iteration:  3235
 C        -0.090562        -0.513935         0.340574
 C         1.376485        -0.115079        -0.018146
 C         2.477053        -0.359396         1.023427
 C         3.136675         0.788182         0.205542
 C         4.566935         1.216462         0.151432
 O         4.826786         0.171871        -0.880478
 C         3.450265         0.230303        -1.175294
 C         2.297088        -0.672825        -1.314605
 O         1.760657         1.368288         0.133099
 H        -0.268596         0.056519         1.244285
 H        -0.841314        -0.250070        -0.473810
 H        -0.152694        -1.622541         0.609146
 H         2.109054         0.064933         1.963208
 H         3.041114        -1.377339         0.926265
 H         4.785580         2.220235        -0.439097
 H         5.244592         1.168683         0.983937
 H         3.083479         1.100316        -1.846761
 H         1.721782        -0.709054        -2.326894
 H         2.642131        -1.695305        -1.066266
