19
Iteration:  1534charge 0 multiplicity 1
 C         0.010331        -0.463016         0.251915
 C         1.459703        -0.178762         0.041166
 C         2.644156        -0.347568         0.968412
 C         3.126274         0.821867         0.186143
 C         4.577870         1.099699         0.255866
 O         4.792132         0.187932        -0.861463
 C         3.330005         0.388767        -1.294229
 C         2.235960        -0.697714        -1.305061
 O         1.623453         1.334363         0.203441
 H        -0.355041        -0.061903         1.096711
 H        -0.662297        -0.139848        -0.579864
 H        -0.168845        -1.477799         0.277569
 H         2.574206        -0.032464         2.011131
 H         3.284692        -1.246700         0.918795
 H         4.701317         2.131815        -0.051559
 H         5.329782         0.742621         1.053191
 H         3.171411         1.178325        -1.920489
 H         1.635746        -0.708901        -2.254712
 H         2.552092        -1.735799        -1.099663
