19
Iteration:   980charge 0 multiplicity 1
 C        -0.037267        -0.506292         0.156351
 C         1.451810        -0.141769         0.063610
 C         2.679823        -0.400361         1.012846
 C         3.108763         0.793663         0.247926
 C         4.543684         1.211625         0.147156
 O         4.751842         0.169325        -0.864229
 C         3.328564         0.330779        -1.175135
 C         2.190301        -0.608462        -1.317413
 O         1.779603         1.308201         0.213769
 H        -0.550964        -0.046141         0.900105
 H        -0.409377        -0.232943        -0.846656
 H        -0.170794        -1.606991         0.331308
 H         2.481325        -0.239923         2.124990
 H         3.272829        -1.353207         0.897113
 H         4.577479         2.165777        -0.270328
 H         5.252891         1.150530         1.083203
 H         3.263237         1.175583        -1.895144
 H         1.598596        -0.619143        -2.282625
 H         2.322269        -1.699780        -1.081836
