19
Iteration:  4179charge 0 multiplicity 1
 C         0.043237        -0.586846         0.325590
 C         1.404923        -0.159139         0.069779
 C         2.571378        -0.269193         1.074169
 C         3.186829         0.840723         0.197089
 C         4.553746         1.224169         0.222183
 O         4.841077         0.082326        -0.826658
 C         3.351706         0.324196        -1.251797
 C         2.154799        -0.640600        -1.408233
 O         1.701007         1.326186         0.031658
 H        -0.140748        -0.378160         1.388764
 H        -0.717142        -0.112738        -0.291668
 H        -0.112238        -1.651478         0.277521
 H         2.340025         0.148296         2.043321
 H         3.122845        -1.240462         1.350231
 H         4.796706         2.289321        -0.159729
 H         5.115306         1.071527         1.196659
 H         3.258085         1.180341        -1.934516
 H         1.564893        -0.403070        -2.340970
 H         2.229667        -1.759295        -1.388581
