19
Iteration:    96
 C        -0.004093        -0.479746         0.346905
 C         1.415062        -0.210471         0.073070
 C         2.619486        -0.433863         0.969741
 C         3.110388         0.790095         0.128731
 C         4.575658         1.234066         0.274650
 O         4.761075         0.204268        -0.853935
 C         3.357732         0.362696        -1.262660
 C         2.225464        -0.689192        -1.349564
 O         1.718079         1.325922         0.104580
 H        -0.207158         0.129234         1.390159
 H        -0.572674        -0.098259        -0.456908
 H        -0.215321        -1.534246         0.488508
 H         2.473916        -0.049333         2.007998
 H         3.065442        -1.495348         0.862202
 H         4.833387         2.219652        -0.097089
 H         5.215559         0.957551         1.215621
 H         3.233047         1.280022        -1.948741
 H         1.605715        -0.626294        -2.199865
 H         2.630233        -1.666849        -1.274527
