19
Iteration:  4134
 C        -0.050680        -0.479558         0.192889
 C         1.476494        -0.139419         0.052925
 C         2.710426        -0.361029         1.019369
 C         3.130038         0.765347         0.163580
 C         4.539241         1.278142         0.142355
 O         4.733304         0.117934        -0.803178
 C         3.295149         0.309527        -1.178073
 C         2.224148        -0.703834        -1.267568
 O         1.730456         1.359705         0.164978
 H        -0.626154        -0.141202         1.023129
 H        -0.532140        -0.203723        -0.782483
 H        -0.253881        -1.579767         0.269798
 H         2.568777        -0.047212         2.019103
 H         3.277461        -1.379490         0.952625
 H         4.854691         2.192036        -0.542660
 H         5.135524         1.229484         1.053367
 H         3.478385         1.178307        -1.829506
 H         1.409846        -0.777288        -2.118798
 H         2.694660        -1.659937        -1.161528
