19
Iteration:  3044
 C         0.018019        -0.499269         0.235749
 C         1.407276        -0.140961         0.024794
 C         2.496422        -0.347786         1.114583
 C         3.148819         0.802216         0.246239
 C         4.611354         1.232069         0.074421
 O         4.873134         0.127173        -0.835406
 C         3.353834         0.291307        -1.197941
 C         2.136216        -0.626101        -1.323706
 O         1.718955         1.297655         0.146810
 H        -0.456142        -0.063059         1.167520
 H        -0.564509        -0.438182        -0.672937
 H         0.090215        -1.593197         0.226158
 H         2.236155         0.112679         2.114010
 H         3.133234        -1.243273         1.217760
 H         4.651865         2.101010        -0.500866
 H         5.317675         1.248892         0.961545
 H         3.334246         1.126660        -1.810899
 H         1.804701        -0.386179        -2.272379
 H         2.244406        -1.719861        -1.326740
