19
Iteration:  4252
 C        -0.016421        -0.494076         0.260964
 C         1.474196        -0.274660         0.054304
 C         2.639325        -0.340035         1.102188
 C         3.073497         0.864355         0.122697
 C         4.640999         1.310475         0.194813
 O         4.728479         0.051447        -0.780924
 C         3.321220         0.327590        -1.245274
 C         2.207232        -0.636352        -1.292725
 O         1.750667         1.301086         0.090988
 H        -0.529531         0.110931         1.018110
 H        -0.328080        -0.220343        -0.817221
 H        -0.440541        -1.541145         0.521449
 H         2.363649        -0.079228         2.102766
 H         3.320973        -1.219637         1.129723
 H         4.782622         2.160897        -0.481077
 H         5.259238         1.243881         1.021791
 H         3.159445         1.168638        -2.043723
 H         1.329951        -0.322626        -2.032113
 H         2.663713        -1.554349        -1.567286
