19
Iteration:  2213
 C         0.004133        -0.505372         0.174532
 C         1.449688        -0.208538         0.081182
 C         2.637037        -0.341868         1.060913
 C         3.140445         0.863633         0.220508
 C         4.579473         1.146079         0.166873
 O         4.746277         0.136563        -0.871650
 C         3.328569         0.341578        -1.194009
 C         2.165897        -0.682456        -1.325995
 O         1.731191         1.350081         0.192673
 H        -0.498904         0.053735         0.964147
 H        -0.420430        -0.205038        -0.723256
 H        -0.381269        -1.508332         0.396802
 H         2.613459        -0.000984         2.111685
 H         3.287368        -1.253001         0.995567
 H         4.867756         2.013369        -0.397795
 H         5.261048         1.131687         1.064118
 H         3.382426         1.192335        -1.987205
 H         1.495739        -0.359183        -2.119580
 H         2.415630        -1.727584        -1.471566
