19
Iteration:   897charge 0 multiplicity 1
 C        -0.060401        -0.674583         0.328999
 C         1.380377        -0.164690        -0.050671
 C         2.622772        -0.390110         0.974326
 C         3.180046         0.777565         0.158027
 C         4.679648         1.269116         0.156034
 O         4.847846         0.129554        -0.747325
 C         3.368909         0.318826        -1.216826
 C         2.113873        -0.555722        -1.367961
 O         1.674299         1.395209         0.184149
 H        -0.390526        -0.402165         1.410768
 H        -0.849905        -0.258437        -0.271932
 H        -0.066729        -1.752203         0.061921
 H         2.355807         0.118245         1.883598
 H         3.140811        -1.313688         1.170192
 H         4.851813         2.311330        -0.466046
 H         5.203658         1.188664         1.082769
 H         3.534990         1.140253        -1.971644
 H         1.570989        -0.299849        -2.287155
 H         2.201284        -1.611126        -1.209744
