19
Iteration:  2402charge 0 multiplicity 1
 C         0.025132        -0.427398         0.264379
 C         1.451958        -0.274850         0.026470
 C         2.592221        -0.393189         1.010055
 C         3.107427         0.831631         0.139230
 C         4.575794         1.211367         0.198044
 O         4.776786         0.159211        -0.864048
 C         3.334842         0.366860        -1.209082
 C         2.177820        -0.647184        -1.254149
 O         1.755071         1.269246         0.138733
 H        -0.287266        -0.035027         1.206499
 H        -0.527786         0.166046        -0.479435
 H        -0.197240        -1.480986         0.351974
 H         2.234833         0.143886         1.928244
 H         3.114693        -1.375079         1.267440
 H         4.885965         2.184475        -0.280031
 H         5.198619         1.098095         1.105207
 H         3.088048         1.140293        -2.027607
 H         1.631875        -0.566170        -2.179041
 H         2.494951        -1.660524        -1.216845
