19
Iteration:   773charge 0 multiplicity 1
 C         0.057563        -0.412374         0.263172
 C         1.479432        -0.214766         0.081911
 C         2.653486        -0.387571         0.992765
 C         3.095510         0.888274         0.163245
 C         4.582465         1.291578         0.217199
 O         4.798521         0.092814        -0.881657
 C         3.405039         0.381331        -1.260722
 C         2.177373        -0.717749        -1.322365
 O         1.555952         1.247976         0.223261
 H        -0.322704         0.002993         1.152630
 H        -0.484833         0.046860        -0.662006
 H        -0.129002        -1.585097         0.303428
 H         2.415014        -0.246060         2.055186
 H         3.194651        -1.343859         0.939262
 H         4.949781         2.283240        -0.274034
 H         5.286586         0.964747         1.134715
 H         3.424148         1.250488        -2.010146
 H         1.579696        -0.444418        -2.210044
 H         2.326537        -1.846588        -1.341281
