19
Iteration:  4500charge 0 multiplicity 1
 C         0.008677        -0.458765         0.207971
 C         1.496707        -0.203506         0.017469
 C         2.581601        -0.364332         1.096296
 C         3.171190         0.821983         0.212015
 C         4.631578         1.273918         0.078162
 O         4.800666         0.081747        -0.798664
 C         3.349772         0.319106        -1.167150
 C         2.097351        -0.650323        -1.288519
 O         1.706064         1.281776         0.126443
 H        -0.498630        -0.393428         1.135747
 H        -0.693208        -0.042835        -0.542696
 H        -0.077377        -1.562597        -0.116822
 H         2.361679         0.209012         2.000467
 H         3.250962        -1.230559         1.414620
 H         4.859186         2.183911        -0.495308
 H         5.178055         1.564550         1.053944
 H         3.164478         1.126086        -1.871816
 H         1.485371        -0.351049        -2.225612
 H         2.150886        -1.701554        -1.296046
