19
Iteration:  3835
 C         0.048495        -0.572537         0.409353
 C         1.443714        -0.181721         0.020970
 C         2.568177        -0.317716         0.985367
 C         3.098714         0.894516         0.223394
 C         4.599255         1.167337         0.210582
 O         4.782135         0.105704        -0.822534
 C         3.409465         0.343089        -1.168556
 C         2.155432        -0.632377        -1.355825
 O         1.662684         1.372568        -0.030842
 H        -0.032466        -0.412103         1.500062
 H        -0.628937        -0.079479        -0.222569
 H        -0.209357        -1.605810         0.307085
 H         2.343750        -0.159323         2.086716
 H         3.152841        -1.209631         0.938160
 H         4.946757         2.115692        -0.241210
 H         5.077503         0.927626         1.167860
 H         3.556084         1.065833        -1.981328
 H         1.599877        -0.470569        -2.231966
 H         2.520402        -1.745404        -1.405102
