19
Iteration:  1935charge 0 multiplicity 1
 C        -0.033819        -0.538122         0.252090
 C         1.479183        -0.172296         0.061893
 C         2.726640        -0.376162         0.974599
 C         3.071451         0.941906         0.135874
 C         4.639611         1.209321         0.209573
 O         4.696412         0.063000        -0.785373
 C         3.315292         0.352763        -1.207967
 C         2.227146        -0.650333        -1.288054
 O         1.646219         1.353648         0.124298
 H        -0.231524        -0.484495         1.217532
 H        -0.567294         0.176494        -0.428789
 H        -0.115768        -1.506368        -0.045578
 H         2.621677        -0.241861         2.044654
 H         3.334986        -1.170736         0.681539
 H         5.114881         2.063856        -0.172788
 H         5.040091         1.070818         1.257771
 H         3.425576         1.129336        -2.039226
 H         1.509941        -0.676410        -2.191908
 H         2.597487        -1.747862        -1.226378
