19
Iteration:    61charge 0 multiplicity 1
 C         0.007501        -0.526350         0.231639
 C         1.488671        -0.184566         0.103719
 C         2.693113        -0.324338         1.040828
 C         3.113683         0.859301         0.150384
 C         4.694389         1.221798         0.212463
 O         4.704496         0.164099        -0.849956
 C         3.319029         0.326437        -1.190998
 C         2.163696        -0.702696        -1.367012
 O         1.627612         1.301328         0.139387
 H        -0.392711        -0.423648         1.342331
 H        -0.613089         0.283692        -0.330292
 H        -0.248411        -1.548176        -0.113012
 H         2.625044         0.010905         2.096329
 H         3.283994        -1.280842         1.025093
 H         5.072230         2.200678        -0.103111
 H         5.215775         0.837879         1.146358
 H         3.228161         1.199362        -2.007897
 H         1.591525        -0.481081        -2.299962
 H         2.484255        -1.798603        -1.385906
