19
Iteration:  2756
 C        -0.029146        -0.605192         0.263283
 C         1.399011        -0.175101        -0.021448
 C         2.546161        -0.342563         0.989709
 C         3.113661         0.861029         0.241259
 C         4.626714         1.226259         0.143120
 O         4.850080         0.168713        -0.812705
 C         3.337280         0.310238        -1.174210
 C         2.083815        -0.681921        -1.267671
 O         1.855864         1.429936         0.076360
 H        -0.463435        -0.210584         1.248432
 H        -0.816254        -0.357097        -0.425087
 H         0.172919        -1.687158         0.388190
 H         2.322355        -0.220105         2.052052
 H         2.861663        -1.504208         0.975872
 H         4.861865         2.264797        -0.233938
 H         5.183556         0.976091         1.110237
 H         3.151799         0.958537        -2.013045
 H         1.453209        -0.738910        -2.189014
 H         2.382285        -1.680264        -1.051455
