19
Iteration:  2205
 C        -0.014960        -0.506654         0.167158
 C         1.466774        -0.180526         0.081634
 C         2.631760        -0.361928         1.062217
 C         3.110585         0.827963         0.251273
 C         4.606226         1.246524         0.165003
 O         4.768726         0.104297        -0.879703
 C         3.363380         0.341223        -1.200785
 C         2.081394        -0.658805        -1.307312
 O         1.782025         1.345759         0.175381
 H        -0.486367         0.060692         0.903158
 H        -0.560063        -0.341375        -0.800813
 H         0.032385        -1.670426         0.371752
 H         2.336890        -0.130931         2.129934
 H         3.104422        -1.364457         0.900490
 H         4.883832         2.227670        -0.349047
 H         5.202807         0.986115         0.968436
 H         3.223645         1.129390        -1.932893
 H         1.423023        -0.473011        -2.113285
 H         2.414953        -1.634824        -1.261746
