19
Iteration:  4790charge 0 multiplicity 1
 C         0.043037        -0.528372         0.300251
 C         1.417055        -0.154773        -0.028977
 C         2.576953        -0.405017         0.944550
 C         3.067843         0.808665         0.238660
 C         4.629931         1.202876         0.234879
 O         4.810887         0.194497        -0.881098
 C         3.423129         0.309955        -1.183496
 C         2.086628        -0.737181        -1.306717
 O         1.717353         1.425311         0.103409
 H        -0.280691         0.269203         1.051876
 H        -0.518247        -0.558083        -0.653071
 H         0.050190        -1.489313         0.757792
 H         2.370865        -0.020201         1.983970
 H         3.024065        -1.339925         1.186376
 H         4.889984         2.264374         0.079583
 H         5.111674         0.803643         1.042566
 H         3.405560         1.032483        -1.976504
 H         1.445851        -0.544688        -2.156010
 H         2.440552        -1.801220        -1.097251
