19
Iteration:  1877charge 0 multiplicity 1
 C        -0.014026        -0.518051         0.314556
 C         1.397110        -0.100471         0.028235
 C         2.512957        -0.446029         1.002993
 C         3.141671         0.697616         0.235156
 C         4.654587         1.230256         0.153553
 O         4.785330         0.268405        -0.835443
 C         3.445775         0.231794        -1.151993
 C         2.170834        -0.629784        -1.326272
 O         1.759403         1.356100         0.067908
 H        -0.587851        -0.011263         1.176140
 H        -0.567491        -0.275408        -0.553298
 H        -0.062043        -1.704091         0.363165
 H         2.307064        -0.173647         2.064072
 H         3.122230        -1.414220         0.928787
 H         4.520998         2.306596        -0.322757
 H         5.248377         1.142555         0.981634
 H         3.183741         1.114978        -1.943145
 H         1.480399        -0.350425        -2.238769
 H         2.265986        -1.726068        -1.077828
