19
Iteration:  4115
 C         0.030772        -0.514500         0.198791
 C         1.463180        -0.108938         0.051339
 C         2.551260        -0.346243         1.120577
 C         3.108164         0.823740         0.193992
 C         4.523957         1.263005         0.140944
 O         4.834085         0.192051        -0.867598
 C         3.362967         0.278055        -1.243160
 C         2.119635        -0.751043        -1.304595
 O         1.796431         1.309252         0.191088
 H        -0.386414        -0.053655         1.105181
 H        -0.428368        -0.201680        -0.716712
 H        -0.105856        -1.559470         0.363239
 H         2.289026         0.065298         2.097342
 H         2.939512        -1.440660         1.088645
 H         4.541873         2.278949        -0.234244
 H         5.215769         1.062461         1.003084
 H         3.393677         0.942350        -2.129373
 H         1.760624        -0.477407        -2.277028
 H         2.105079        -1.881486        -1.195185
