19
Iteration:  3418
 C        -0.009682        -0.530335         0.220730
 C         1.383277        -0.131324         0.072615
 C         2.555101        -0.340159         1.102579
 C         3.077053         0.771456         0.202842
 C         4.597677         1.234990         0.085846
 O         4.888627         0.143129        -0.904207
 C         3.410243         0.236854        -1.166241
 C         2.201519        -0.658863        -1.271209
 O         1.706667         1.387303         0.155963
 H        -0.357906         0.071667         1.072355
 H        -0.538944        -0.456224        -0.760138
 H        -0.215780        -1.595874         0.419200
 H         2.103975         0.006276         1.993352
 H         2.994281        -1.371817         1.107010
 H         4.681764         2.237744        -0.391635
 H         5.156632         1.159105         1.154381
 H         3.368111         1.006544        -1.961260
 H         1.676781        -0.349147        -2.243000
 H         2.356695        -1.703625        -1.210438
