19
Iteration:  3532
 C        -0.010392        -0.540967         0.221079
 C         1.427196        -0.118200         0.041395
 C         2.663261        -0.261169         1.100917
 C         3.134607         0.768891         0.144087
 C         4.587577         1.269520         0.154020
 O         4.834536         0.171073        -0.752887
 C         3.343589         0.174762        -1.202940
 C         2.057294        -0.613760        -1.335497
 O         1.767957         1.273854         0.101066
 H        -0.233152        -0.313289         1.307193
 H        -0.658223        -0.251324        -0.615999
 H        -0.011603        -1.643158         0.091991
 H         2.248909         0.139529         2.120986
 H         3.078775        -1.238891         1.239628
 H         4.778856         2.222790        -0.479723
 H         5.045092         1.219174         1.104607
 H         3.330937         0.964335        -1.895302
 H         1.465630        -0.167280        -2.133727
 H         2.209787        -1.719389        -1.611570
