19
Iteration:   541charge 0 multiplicity 1
 C         0.059044        -0.603756         0.368496
 C         1.467322        -0.231833        -0.058157
 C         2.614373        -0.398958         0.985931
 C         3.113005         0.787537         0.108466
 C         4.621879         1.182668         0.221286
 O         4.842330         0.174497        -0.772868
 C         3.363666         0.337918        -1.197020
 C         2.045523        -0.541869        -1.414561
 O         1.666421         1.376985         0.161477
 H         0.011898        -0.233099         1.542087
 H        -0.627202         0.005436        -0.198111
 H        -0.114418        -1.627599         0.202780
 H         2.327593        -0.196300         2.025824
 H         3.211609        -1.321892         0.960118
 H         4.859808         2.197853        -0.201488
 H         5.090610         0.964789         1.293534
 H         3.363955         1.235404        -2.035933
 H         1.513790        -0.127772        -2.242252
 H         2.132055        -1.619637        -1.565917
