19
Iteration:  3908
 C         0.012756        -0.557886         0.279365
 C         1.438879        -0.132672        -0.002715
 C         2.509815        -0.361638         1.089024
 C         3.130865         0.739731         0.235926
 C         4.589736         1.335368         0.099258
 O         4.841116         0.093131        -0.838396
 C         3.333018         0.326307        -1.219617
 C         2.138617        -0.630698        -1.313833
 O         1.807370         1.324813         0.137809
 H        -0.499264        -0.145042         1.194658
 H        -0.545720        -0.278189        -0.704555
 H        -0.136341        -1.675622         0.189941
 H         2.129663        -0.070559         2.041753
 H         3.137199        -1.343504         1.135481
 H         4.438906         2.273515        -0.434913
 H         5.390280         1.317277         0.955081
 H         3.206165         1.320696        -1.723247
 H         1.586668        -0.576599        -2.305356
 H         2.406589        -1.651050        -0.975134
