19
Iteration:  4521charge 0 multiplicity 1
 C         0.039372        -0.521712         0.224387
 C         1.456582        -0.150553         0.052988
 C         2.690069        -0.337775         1.032452
 C         3.058362         0.887493         0.147916
 C         4.595907         1.190202         0.149014
 O         4.709330         0.063284        -0.781757
 C         3.329519         0.321115        -1.193786
 C         2.198999        -0.683364        -1.269722
 O         1.687453         1.355431         0.134814
 H        -0.195797        -0.212767         1.265488
 H        -0.579347         0.274708        -0.310236
 H        -0.245746        -1.578607        -0.164139
 H         2.409687         0.017627         2.032438
 H         3.350053        -1.283728         0.953674
 H         4.789365         2.149905        -0.320869
 H         5.262994         1.275438         1.121662
 H         3.445447         0.942562        -2.102906
 H         1.770995        -0.577117        -2.321941
 H         2.538432        -1.693203        -1.343084
