19
Iteration:  2317charge 0 multiplicity 1
 C        -0.015212        -0.538118         0.249353
 C         1.473368        -0.187808         0.074731
 C         2.737331        -0.320726         0.995313
 C         3.069397         0.941070         0.199696
 C         4.624909         1.223427         0.179644
 O         4.710511         0.017466        -0.812402
 C         3.355122         0.341822        -1.188654
 C         2.177823        -0.611263        -1.286078
 O         1.662375         1.302654         0.114153
 H        -0.226391         0.065547         1.217939
 H        -0.663975        -0.071210        -0.627074
 H        -0.186276        -1.613749         0.176338
 H         2.491278        -0.202384         2.060992
 H         3.339853        -1.223650         0.771728
 H         5.025320         2.097598        -0.406340
 H         5.246868         0.969383         0.989790
 H         3.342812         1.151096        -1.896493
 H         1.673713        -0.273745        -2.210036
 H         2.239597        -1.722987        -1.414663
