19
Iteration:  4093charge 0 multiplicity 1
 C        -0.071840        -0.515731         0.286811
 C         1.368208        -0.221152         0.059606
 C         2.528628        -0.381383         1.027071
 C         3.138484         0.780681         0.240722
 C         4.699965         1.246752         0.159731
 O         4.895190         0.252344        -0.888813
 C         3.354053         0.263168        -1.138782
 C         2.115209        -0.669943        -1.286008
 O         1.732277         1.334688         0.016085
 H        -0.253693        -0.156779         1.312186
 H        -0.658218        -0.165383        -0.546897
 H        -0.095959        -1.568552         0.468347
 H         2.171543         0.051813         1.941058
 H         3.267401        -1.289074         1.126307
 H         4.693365         2.281707        -0.164013
 H         5.355550         0.993483         1.038047
 H         3.124752         1.167237        -1.745595
 H         1.729887        -0.488085        -2.320190
 H         2.363139        -1.764132        -1.168760
