19
Iteration:  4651
 C         0.010907        -0.538843         0.260491
 C         1.445941        -0.221490         0.059585
 C         2.581510        -0.287011         1.044171
 C         3.087146         0.828287         0.229782
 C         4.614846         1.178832         0.169977
 O         4.805722         0.137543        -0.843239
 C         3.354156         0.308548        -1.201105
 C         2.140974        -0.580444        -1.273522
 O         1.773662         1.300510         0.058667
 H        -0.450883        -0.041079         1.067514
 H        -0.546989        -0.180295        -0.656090
 H        -0.382478        -1.570537         0.417733
 H         2.448889        -0.032358         2.054679
 H         3.096176        -1.265283         0.908991
 H         4.747309         2.075402        -0.392500
 H         5.210926         1.141583         1.127956
 H         3.306485         1.015197        -2.079710
 H         1.497822        -0.304143        -2.094514
 H         2.309108        -1.621792        -1.100657
