19
Iteration:  1683
 C        -0.048677        -0.568095         0.223159
 C         1.402926        -0.072786         0.016497
 C         2.527809        -0.387867         1.038721
 C         3.180410         0.711221         0.255208
 C         4.633664         1.194563         0.158882
 O         4.865922         0.221682        -0.921228
 C         3.417308         0.283613        -1.145246
 C         2.155825        -0.627813        -1.266461
 O         1.708784         1.367053         0.122898
 H        -0.481880        -0.101442         1.184102
 H        -0.826895        -0.493310        -0.645714
 H         0.032506        -1.699337         0.539341
 H         2.192345        -0.135237         2.038783
 H         2.922842        -1.411565         0.966520
 H         4.558612         2.293150        -0.107591
 H         5.443526         1.181609         0.937395
 H         3.188580         1.118668        -1.911024
 H         1.631815        -0.330136        -2.171098
 H         2.246568        -1.749996        -1.256220
