19
Iteration:  1834
 C        -0.009241        -0.515548         0.152550
 C         1.530452        -0.293208         0.058443
 C         2.745735        -0.371343         1.039321
 C         3.072186         0.909171         0.210920
 C         4.600463         1.190201         0.223480
 O         4.652039         0.137109        -0.810445
 C         3.295177         0.331782        -1.224166
 C         2.193097        -0.687450        -1.325466
 O         1.683519         1.402223         0.182701
 H        -0.064803         0.331611         0.875911
 H        -0.420336        -0.150427        -0.691425
 H        -0.354057        -1.497115         0.609662
 H         2.545389        -0.039696         2.071616
 H         3.300751        -1.347003         1.043294
 H         5.043274         2.105901        -0.352700
 H         5.214239         0.867031         0.994351
 H         3.416357         1.014740        -2.207843
 H         1.629640        -0.374110        -2.396668
 H         2.503737        -1.820980        -1.343546
