19
Iteration:  4169charge 0 multiplicity 1
 C         0.033258        -0.555432         0.321429
 C         1.475932        -0.151363        -0.025012
 C         2.638100        -0.284324         1.087104
 C         3.102260         0.839079         0.170743
 C         4.658122         1.225566         0.146370
 O         4.798400         0.119116        -0.806988
 C         3.375403         0.320799        -1.151472
 C         2.127032        -0.692397        -1.352446
 O         1.604338         1.300898         0.088195
 H        -0.276523        -0.104540         1.259187
 H        -0.525612         0.007825        -0.401981
 H        -0.152036        -1.576825         0.141239
 H         2.359807         0.152376         2.055280
 H         3.022942        -1.345692         1.075754
 H         4.949226         2.241400        -0.267778
 H         5.167101         0.959828         1.137525
 H         3.317243         1.044870        -1.944852
 H         1.660214        -0.280476        -2.225869
 H         2.437109        -1.763114        -1.515051
