19
Iteration:  4113
 C         0.030795        -0.520506         0.214071
 C         1.479241        -0.114911         0.025153
 C         2.535396        -0.340308         1.127229
 C         3.118017         0.815682         0.195290
 C         4.534876         1.262342         0.148998
 O         4.846426         0.202458        -0.880368
 C         3.357503         0.280345        -1.229056
 C         2.109402        -0.762428        -1.286099
 O         1.786670         1.315086         0.185628
 H        -0.384861        -0.078499         1.084546
 H        -0.453026        -0.193203        -0.716609
 H        -0.187531        -1.572621         0.373374
 H         2.289101         0.019340         2.100231
 H         2.860463        -1.470870         1.081357
 H         4.613784         2.353533        -0.273017
 H         5.207073         1.069368         0.990815
 H         3.497705         0.930096        -2.118030
 H         1.689558        -0.448673        -2.332653
 H         2.088612        -1.847279        -1.244893
