19
Iteration:  3591charge 0 multiplicity 1
 C         0.049943        -0.476757         0.270384
 C         1.473343        -0.203726         0.001445
 C         2.622388        -0.279694         1.090893
 C         3.127611         0.785201         0.201320
 C         4.561297         1.175967         0.236149
 O         4.792355         0.201577        -0.885266
 C         3.366513         0.282404        -1.223539
 C         2.168453        -0.708949        -1.315954
 O         1.673070         1.329596         0.075494
 H        -0.385644         0.162742         0.995174
 H        -0.517039        -0.097535        -0.591541
 H        -0.141955        -1.527605         0.525518
 H         2.096766         0.019367         1.988238
 H         3.128118        -1.306470         1.243003
 H         4.846116         2.134295        -0.084386
 H         5.169378         0.937692         1.159044
 H         3.185658         1.217130        -1.844575
 H         1.412875        -0.769017        -2.218770
 H         2.653446        -1.680323        -1.176520
