19
Iteration:  1855charge 0 multiplicity 1
 C        -0.034143        -0.443091         0.201421
 C         1.463337        -0.242440         0.023151
 C         2.640263        -0.350351         0.987038
 C         3.090649         0.854624         0.137077
 C         4.581249         1.243003         0.201539
 O         4.840222         0.110812        -0.831413
 C         3.309505         0.362825        -1.220347
 C         2.154973        -0.717215        -1.289383
 O         1.745215         1.311562         0.237869
 H        -0.479046         0.309554         0.966571
 H        -0.524133        -0.344523        -0.709332
 H        -0.022643        -1.572926         0.563966
 H         2.321287        -0.129069         2.032447
 H         3.199426        -1.359716         0.939015
 H         4.670229         2.353287        -0.217663
 H         5.024973         0.986184         1.083745
 H         3.119206         1.268876        -2.029946
 H         1.577087        -0.528220        -2.322222
 H         2.607183        -1.749910        -1.119727
