19
Iteration:  2623
 C         0.043260        -0.521525         0.302164
 C         1.442176        -0.150551         0.105569
 C         2.657873        -0.319854         1.045848
 C         3.091345         0.870049         0.199200
 C         4.603525         1.135537         0.255371
 O         4.801806         0.124689        -0.831927
 C         3.323897         0.352351        -1.235032
 C         2.176220        -0.677123        -1.349783
 O         1.638279         1.315095         0.024013
 H        -0.305940        -0.363960         1.383467
 H        -0.608026         0.196723        -0.251251
 H        -0.285781        -1.405377        -0.116779
 H         2.552817         0.148581         2.092814
 H         3.475281        -1.129615         0.872196
 H         4.996064         2.125666        -0.178589
 H         5.067518         0.815833         1.165851
 H         3.323593         1.119579        -2.069432
 H         1.512826        -0.582589        -2.205648
 H         2.493975        -1.747559        -1.473347
