19
Iteration:  1150
 C        -0.034963        -0.505446         0.202195
 C         1.478059        -0.275241         0.081706
 C         2.636596        -0.441985         1.002638
 C         3.122839         0.803502         0.176646
 C         4.599821         1.167171         0.248795
 O         4.747791         0.181592        -0.880050
 C         3.327782         0.437835        -1.295550
 C         2.212604        -0.608249        -1.214948
 O         1.704206         1.335161         0.126584
 H        -0.342080         0.310608         1.085320
 H        -0.497937        -0.160684        -0.789003
 H        -0.298177        -1.510815         0.473073
 H         2.474247        -0.184922         2.027759
 H         3.183019        -1.341044         0.903749
 H         4.793444         2.248941        -0.084410
 H         5.029941         0.846539         1.153848
 H         3.314993         1.435369        -1.941156
 H         1.504539        -0.840600        -2.008231
 H         2.818332        -1.521673        -1.013900
