19
Iteration:  2577charge 0 multiplicity 1
 C        -0.034596        -0.513442         0.275537
 C         1.414457        -0.128179         0.058244
 C         2.631348        -0.369571         1.025392
 C         3.194929         0.739663         0.202431
 C         4.593009         1.220108         0.152310
 O         4.803377         0.130582        -0.810527
 C         3.386246         0.324312        -1.181605
 C         2.196423        -0.658916        -1.320297
 O         1.699108         1.418667         0.103702
 H        -0.508926        -0.191941         1.200133
 H        -0.816564        -0.375837        -0.533863
 H        -0.107282        -1.633055         0.223861
 H         2.277718        -0.199993         2.088677
 H         3.062611        -1.413525         0.765215
 H         4.500565         2.221604        -0.394332
 H         5.343486         1.087247         0.888750
 H         3.042610         1.165656        -1.754027
 H         1.609894        -0.522557        -2.267716
 H         2.309139        -1.805291        -1.275481
