19
Iteration:  2822
 C         0.040610        -0.471489         0.319046
 C         1.457117        -0.146207         0.021461
 C         2.604538        -0.333981         0.965335
 C         3.107672         0.890124         0.211256
 C         4.596234         1.239170         0.158103
 O         4.763972         0.100341        -0.772880
 C         3.337266         0.264319        -1.155624
 C         2.225537        -0.727207        -1.363092
 O         1.654908         1.338941         0.063125
 H        -0.295972        -0.378242         1.379339
 H        -0.693077         0.119985        -0.239310
 H        -0.210968        -1.544997         0.211653
 H         2.410236        -0.149794         2.008465
 H         3.302296        -1.275156         0.873457
 H         4.915044         2.113581        -0.375134
 H         5.271332         1.154715         1.064118
 H         3.355964         1.078735        -1.831946
 H         1.586351        -0.525634        -2.227078
 H         2.552158        -1.715924        -1.214175
