19
Iteration:  3670charge 0 multiplicity 1
 C        -0.037137        -0.530596         0.316621
 C         1.466316        -0.171248         0.063658
 C         2.690953        -0.261265         0.997514
 C         3.074291         0.886151         0.147453
 C         4.636146         1.257891         0.172798
 O         4.744072         0.030930        -0.722282
 C         3.311200         0.342129        -1.252890
 C         2.251660        -0.658365        -1.408703
 O         1.651892         1.304172         0.124144
 H        -0.215735        -0.289398         1.362473
 H        -0.607959        -0.078428        -0.517855
 H        -0.312109        -1.599442         0.284103
 H         2.547280         0.122257         2.021870
 H         3.206119        -1.310353         1.110597
 H         4.953830         2.101101        -0.352787
 H         5.170913         1.059341         1.156660
 H         3.400138         1.084923        -2.115469
 H         1.631993        -0.571803        -2.343633
 H         2.491239        -1.774284        -1.297959
