19
Iteration:  1306charge 0 multiplicity 1
 C        -0.011486        -0.547355         0.316681
 C         1.411773        -0.146249        -0.008441
 C         2.526096        -0.381413         1.016418
 C         3.134892         0.693532         0.222780
 C         4.643991         1.176663         0.215907
 O         4.882645         0.264083        -0.902897
 C         3.374976         0.286973        -1.208935
 C         2.109445        -0.651621        -1.357299
 O         1.746402         1.394429         0.173892
 H        -0.448768        -0.085672         1.176734
 H        -0.521198        -0.364230        -0.711602
 H         0.024338        -1.681264         0.523233
 H         2.013996        -0.089048         1.906272
 H         2.863430        -1.371914         1.140264
 H         4.477837         2.393113        -0.167867
 H         5.368715         1.171087         0.972140
 H         3.313116         1.218566        -1.940059
 H         1.522128        -0.708614        -2.244052
 H         2.380138        -1.698132        -1.184205
