19
Iteration:  4197charge 0 multiplicity 1
 C         0.013859        -0.669304         0.431426
 C         1.392061        -0.127417        -0.065214
 C         2.554924        -0.318743         1.019576
 C         3.087753         0.816230         0.111228
 C         4.574280         1.167209         0.194260
 O         4.800802         0.162897        -0.775278
 C         3.437133         0.317988        -1.194434
 C         2.094289        -0.633236        -1.258653
 O         1.821221         1.417186         0.009080
 H        -0.297697        -0.406439         1.444450
 H        -0.785737        -0.255957        -0.297086
 H         0.059851        -1.762101         0.050125
 H         2.296185         0.101284         2.000362
 H         2.921247        -1.348473         1.110937
 H         4.838967         2.193776        -0.137816
 H         5.125729         1.021058         1.067202
 H         3.286919         1.041366        -2.071390
 H         1.549827        -0.425331        -2.281299
 H         2.531610        -1.586470        -1.313753
