19
Iteration:  4138
 C        -0.070130        -0.509021         0.190869
 C         1.477223        -0.161433         0.028415
 C         2.724380        -0.372823         1.021636
 C         3.139866         0.832531         0.178542
 C         4.570816         1.293162         0.128907
 O         4.741356         0.081873        -0.796835
 C         3.299898         0.382093        -1.173341
 C         2.183586        -0.728778        -1.246449
 O         1.716492         1.345506         0.148703
 H        -0.579017        -0.045361         1.083393
 H        -0.472853        -0.124010        -0.720414
 H        -0.340794        -1.533018         0.252172
 H         2.597640        -0.087922         2.102134
 H         3.164411        -1.366662         0.811649
 H         4.792903         2.140804        -0.444077
 H         5.184446         1.173477         1.072507
 H         3.430651         1.143208        -1.920558
 H         1.592584        -0.745791        -2.095297
 H         2.721240        -1.738774        -1.137742
