19
Iteration:  1592charge 0 multiplicity 1
 C         0.013556        -0.625536         0.317324
 C         1.428818        -0.129562        -0.009071
 C         2.508275        -0.384531         1.045499
 C         3.150806         0.796439         0.193191
 C         4.562579         1.313826         0.131285
 O         4.860825         0.063815        -0.769554
 C         3.427705         0.269301        -1.183273
 C         2.065312        -0.501354        -1.385157
 O         1.769774         1.343861         0.128214
 H        -0.165247        -0.762840         1.435272
 H        -0.773098        -0.081456        -0.222084
 H         0.137270        -1.724637        -0.112363
 H         2.156494        -0.064917         2.032696
 H         2.998359        -1.352507         1.074660
 H         4.732107         2.313292        -0.496343
 H         5.253926         1.246339         0.931205
 H         3.512605         1.206027        -1.841355
 H         1.425846        -0.083898        -2.274548
 H         2.079704        -1.600696        -1.407397
