19
Iteration:  4686charge 0 multiplicity 1
 C        -0.002414        -0.546075         0.354452
 C         1.436795        -0.145766        -0.006327
 C         2.528617        -0.286765         1.021268
 C         3.104420         0.847853         0.187960
 C         4.669667         1.157081         0.179514
 O         4.817180         0.174096        -0.807493
 C         3.349158         0.250924        -1.195031
 C         2.194667        -0.679926        -1.399127
 O         1.722481         1.359241         0.100296
 H         0.008361        -0.414178         1.415414
 H        -0.694328         0.211264        -0.072395
 H        -0.150079        -1.638103         0.031167
 H         2.090613        -0.017115         1.917112
 H         2.876921        -1.342696         1.009381
 H         4.679362         2.115315        -0.218352
 H         5.319595         1.157803         1.086774
 H         3.271973         1.148683        -1.856954
 H         1.630177        -0.760471        -2.348163
 H         2.292952        -1.677241        -1.191044
