19
Iteration:   756charge 0 multiplicity 1
 C         0.045189        -0.568670         0.217900
 C         1.466727        -0.185062         0.011814
 C         2.733714        -0.366330         0.942367
 C         3.124819         0.882755         0.209049
 C         4.656320         1.224406         0.127027
 O         4.731940         0.095907        -0.750891
 C         3.252574         0.344111        -1.151827
 C         2.134346        -0.573031        -1.301825
 O         1.643279         1.300524         0.170878
 H        -0.336509        -0.161840         1.191280
 H        -0.509601        -0.050703        -0.513101
 H        -0.186346        -1.602096         0.111525
 H         2.543702        -0.149095         2.005821
 H         3.436528        -1.188060         0.794698
 H         4.877137         2.106482        -0.442936
 H         5.199664         1.164080         0.995888
 H         3.333206         1.060127        -1.964835
 H         1.519459        -0.563177        -2.214044
 H         2.476360        -1.576021        -1.159148
