19
Iteration:   473charge 0 multiplicity 1
 C         0.014490        -0.479992         0.187154
 C         1.480708        -0.209332        -0.001550
 C         2.762096        -0.324482         1.014935
 C         3.094091         0.851249         0.157230
 C         4.634271         1.134990         0.268946
 O         4.669027         0.207530        -0.900094
 C         3.313652         0.346303        -1.267729
 C         2.188005        -0.677851        -1.325396
 O         1.646695         1.270033         0.285494
 H        -0.339064         0.180062         1.043127
 H        -0.618697        -0.217063        -0.714279
 H        -0.083361        -1.530997         0.410347
 H         2.566937         0.070838         2.006045
 H         3.507883        -1.138569         1.103858
 H         5.135091         2.162170         0.055638
 H         5.125734         0.609389         1.074822
 H         3.201846         1.297258        -1.970853
 H         1.593441        -0.591403        -2.191376
 H         2.330881        -1.692138        -1.213929
