19
Iteration:   121charge 0 multiplicity 1
 C        -0.061771        -0.563231         0.353532
 C         1.358426        -0.124276         0.004096
 C         2.512269        -0.426625         0.968647
 C         3.153716         0.780018         0.269078
 C         4.571725         1.282345         0.141731
 O         4.918141         0.200594        -0.861505
 C         3.433106         0.291262        -1.169091
 C         2.092736        -0.637735        -1.399911
 O         1.803260         1.321999         0.160508
 H        -0.453143        -0.029730         1.205909
 H        -0.714220        -0.584248        -0.486623
 H         0.097702        -1.615450         0.686234
 H         2.124085        -0.128340         1.953761
 H         3.090322        -1.348999         0.932425
 H         4.393453         2.309740        -0.324506
 H         5.360628         1.274548         0.894146
 H         3.389048         1.098997        -1.809012
 H         1.596952        -0.382982        -2.333206
 H         2.185812        -1.692518        -1.346944
