19
Iteration:   127
 C         0.018232        -0.583851         0.326030
 C         1.398487        -0.182185        -0.044859
 C         2.520311        -0.385857         0.944830
 C         3.119640         0.736445         0.268024
 C         4.582472         1.295650         0.164638
 O         4.911084         0.188566        -0.888208
 C         3.442500         0.234806        -1.137303
 C         2.062574        -0.598926        -1.334837
 O         1.755033         1.371101         0.187121
 H        -0.435949         0.191756         1.146326
 H        -0.677641        -0.501532        -0.557503
 H         0.060451        -1.613316         0.670472
 H         2.144516        -0.126801         1.947900
 H         2.992083        -1.417835         0.918355
 H         4.472044         2.187186        -0.428952
 H         5.420053         1.444969         0.934416
 H         3.305676         1.184922        -1.859881
 H         1.526986        -0.274635        -2.248927
 H         2.138910        -1.741250        -1.368342
