19
Iteration:  2672
 C         0.071232        -0.509318         0.278333
 C         1.423016        -0.083838         0.032159
 C         2.604015        -0.369789         1.009018
 C         3.080696         0.801798         0.175842
 C         4.569624         1.266473         0.091139
 O         4.847042         0.093996        -0.751165
 C         3.319022         0.213235        -1.241317
 C         2.136996        -0.618759        -1.346478
 O         1.752854         1.370521         0.199767
 H        -0.325834        -0.292959         1.210422
 H        -0.622076        -0.365221        -0.557365
 H         0.041851        -1.675468         0.105638
 H         2.209869         0.024122         1.888509
 H         3.078245        -1.307817         0.943431
 H         4.773753         2.163386        -0.454528
 H         4.926629         1.242192         1.197469
 H         3.425970         1.182886        -1.888446
 H         1.502712        -0.618701        -2.261113
 H         2.267602        -1.697850        -1.168047
