19
Iteration:  2857
 C        -0.043293        -0.589851         0.323363
 C         1.437478        -0.138084         0.013829
 C         2.520773        -0.291316         1.000739
 C         3.128992         0.762494         0.121972
 C         4.631543         1.230370         0.240062
 O         4.862301         0.218512        -0.836991
 C         3.358895         0.231085        -1.178796
 C         2.053909        -0.686824        -1.312634
 O         1.846901         1.361610         0.077059
 H        -0.268427        -0.038178         1.220191
 H        -0.740345        -0.315854        -0.522609
 H        -0.118960        -1.725491         0.370420
 H         2.146389         0.273117         1.912156
 H         3.280088        -1.239259         1.151398
 H         4.653341         2.244886        -0.162111
 H         5.072779         1.088805         1.350491
 H         3.129942         1.029924        -1.939983
 H         1.388280        -0.605421        -2.199826
 H         2.386475        -1.725136        -1.354500
