19
Iteration:  2232
 C        -0.011590        -0.412634         0.257407
 C         1.471172        -0.261635         0.029538
 C         2.705110        -0.324808         1.009790
 C         3.087732         0.880020         0.182839
 C         4.639231         1.201082         0.190869
 O         4.737751         0.093706        -0.835510
 C         3.377113         0.374630        -1.235743
 C         2.167118        -0.655013        -1.328465
 O         1.624384         1.251478         0.170738
 H        -0.336605         0.030446         1.309342
 H        -0.594207         0.131460        -0.561806
 H        -0.271532        -1.444223         0.279922
 H         2.299078         0.020130         1.945761
 H         3.310629        -1.212227         1.068319
 H         5.109619         2.203010        -0.122026
 H         5.232850         0.692643         1.086296
 H         3.363636         1.180907        -2.012603
 H         1.522862        -0.530487        -2.289343
 H         2.660436        -1.736380        -1.169733
