19
Iteration:  2844
 C        -0.027325        -0.556010         0.342743
 C         1.374977        -0.107522         0.002732
 C         2.539480        -0.369045         1.004702
 C         3.142825         0.795638         0.151444
 C         4.529472         1.241731         0.204447
 O         4.881356         0.194084        -0.819962
 C         3.410541         0.246461        -1.276961
 C         2.143532        -0.673684        -1.266903
 O         1.779729         1.390857         0.070159
 H        -0.308362        -0.385610         1.417926
 H        -0.810261        -0.185479        -0.351594
 H         0.004072        -1.689980         0.343266
 H         2.365666         0.037359         1.985470
 H         2.811062        -1.509972         1.127421
 H         4.818338         2.202388        -0.137017
 H         5.190222         1.009215         1.088535
 H         3.488283         0.919722        -2.078391
 H         1.594364        -0.524735        -2.209119
 H         2.239612        -1.673319        -0.969554
