19
Iteration:  1116
 C         0.085486        -0.597104         0.195275
 C         1.435199        -0.178230        -0.018567
 C         2.547523        -0.370197         1.018880
 C         3.128874         0.762220         0.259696
 C         4.630681         1.274971         0.137250
 O         4.846932         0.178772        -0.869016
 C         3.383476         0.223463        -1.109027
 C         2.071685        -0.604451        -1.373577
 O         1.716373         1.397634         0.224565
 H        -0.427944        -0.104742         1.199414
 H        -0.557301        -0.241067        -0.615601
 H        -0.158028        -1.616721         0.307897
 H         2.077201        -0.262204         1.964164
 H         3.141325        -1.280052         0.943681
 H         4.703395         2.327764        -0.252154
 H         5.217742         1.269103         1.052773
 H         3.283410         1.142875        -1.856918
 H         1.466541        -0.384994        -2.298673
 H         2.179909        -1.717730        -1.277021
