19
Iteration:  3240
 C        -0.084313        -0.531985         0.271959
 C         1.400742        -0.093469         0.026835
 C         2.499962        -0.385574         1.001704
 C         3.159528         0.785714         0.201602
 C         4.596528         1.227246         0.110396
 O         4.787082         0.191988        -0.863518
 C         3.413878         0.220848        -1.149550
 C         2.248950        -0.680940        -1.294659
 O         1.764517         1.364784         0.113936
 H        -0.322186         0.027777         1.217767
 H        -0.855188        -0.213041        -0.363887
 H        -0.004879        -1.481943         0.743285
 H         2.085460        -0.021103         1.948585
 H         3.010715        -1.270847         1.063684
 H         4.730861         2.190442        -0.220827
 H         5.259936         1.143690         1.025285
 H         3.289050         1.016042        -1.895624
 H         1.881160        -0.590163        -2.250289
 H         2.604892        -1.728415        -1.127042
