19
Iteration:  4517
 C         0.055129        -0.518936         0.208599
 C         1.462854        -0.158909         0.075149
 C         2.673923        -0.310732         1.052739
 C         3.067761         0.884668         0.178085
 C         4.582982         1.225559         0.127120
 O         4.728634         0.052094        -0.774970
 C         3.334848         0.299783        -1.212797
 C         2.193640        -0.665433        -1.307285
 O         1.681194         1.328044         0.145096
 H        -0.230369        -0.188285         1.293965
 H        -0.425145         0.306604        -0.338225
 H        -0.166095        -1.502185        -0.154484
 H         2.262654        -0.034127         2.067182
 H         3.202656        -1.206213         0.872374
 H         4.773489         2.191258        -0.373989
 H         5.252264         1.088159         0.992142
 H         3.488539         1.035143        -2.045407
 H         1.597207        -0.586658        -2.188224
 H         2.556087        -1.779396        -1.328363
