19
Iteration:  1273
 C        -0.020110        -0.560105         0.357573
 C         1.456600        -0.181181         0.053072
 C         2.640472        -0.369461         0.959839
 C         3.125308         0.815239         0.176735
 C         4.619365         1.211567         0.281037
 O         4.717606         0.165282        -0.833025
 C         3.362636         0.354404        -1.194195
 C         2.156869        -0.603394        -1.346603
 O         1.746699         1.303298         0.051460
 H        -0.461177        -0.200217         1.290272
 H        -0.683234        -0.158680        -0.515930
 H         0.025310        -1.692871         0.197903
 H         2.258088        -0.079497         1.934839
 H         3.132457        -1.308402         0.906842
 H         5.000430         2.238180        -0.242294
 H         5.225450         0.938935         1.091610
 H         3.294660         1.239725        -1.975767
 H         1.583575        -0.349402        -2.204268
 H         2.428451        -1.647637        -1.254621
