19
Iteration:   293
 C        -0.035257        -0.553389         0.242449
 C         1.438833        -0.162268         0.067765
 C         2.657345        -0.379025         1.072610
 C         3.121739         0.849455         0.175463
 C         4.660553         1.226500         0.195781
 O         4.766388         0.163234        -0.882443
 C         3.328177         0.354402        -1.260788
 C         2.155980        -0.624711        -1.348635
 O         1.690850         1.280826         0.187094
 H        -0.390128         0.036892         1.172850
 H        -0.635071        -0.332275        -0.582303
 H        -0.087789        -1.629493         0.531450
 H         2.397918        -0.033567         2.117286
 H         3.285823        -1.308776         1.119175
 H         5.016624         2.176170        -0.203257
 H         5.298836         0.905126         1.120984
 H         3.316566         1.193353        -2.052645
 H         1.571643        -0.390798        -2.282929
 H         2.305841        -1.770344        -1.378793
