19
Iteration:  3357charge 0 multiplicity 1
 C        -0.049155        -0.528828         0.300623
 C         1.406073        -0.202679         0.038266
 C         2.627418        -0.268429         1.011123
 C         3.151828         0.806604         0.087863
 C         4.635143         1.201249         0.234396
 O         4.900040         0.154235        -0.771429
 C         3.367642         0.290523        -1.248753
 C         2.082947        -0.660384        -1.299641
 O         1.683468         1.314845         0.068911
 H        -0.246993        -0.188729         1.287912
 H        -0.685380         0.085073        -0.306319
 H        -0.206002        -1.625864         0.303818
 H         2.202966         0.125071         1.975322
 H         3.232453        -1.194851         1.171513
 H         4.957115         2.184826        -0.230565
 H         4.987993         1.161005         1.187907
 H         3.354432         1.010269        -2.080336
 H         1.400815        -0.459126        -2.088170
 H         2.335367        -1.779758        -1.298003
