19
Iteration:   370
 C         0.052987        -0.459216         0.264499
 C         1.497444        -0.237992         0.067293
 C         2.726530        -0.411119         0.954492
 C         3.073980         0.998115         0.182194
 C         4.679690         1.215641         0.189748
 O         4.694307         0.130271        -0.790140
 C         3.383452         0.345572        -1.234068
 C         2.093907        -0.702906        -1.361166
 O         1.559157         1.282850         0.203164
 H        -0.167514        -0.139579         1.265252
 H        -0.386392         0.105772        -0.501100
 H        -0.150755        -1.570251         0.162113
 H         2.679432        -0.295941         2.075022
 H         3.451617        -1.213763         0.724221
 H         5.115317         2.150947        -0.274977
 H         5.333608         1.013621         1.095164
 H         3.495293         1.041744        -2.072447
 H         1.441215        -0.366831        -2.215696
 H         2.350730        -1.830787        -1.443011
