19
Iteration:   238charge 0 multiplicity 1
 C        -0.025825        -0.536259         0.314198
 C         1.386340        -0.167636         0.088823
 C         2.556609        -0.401609         0.968557
 C         3.151114         0.797274         0.196640
 C         4.611517         1.258597         0.104294
 O         4.863894         0.242836        -0.832826
 C         3.385406         0.261912        -1.176493
 C         2.131838        -0.655689        -1.339950
 O         1.747713         1.294256         0.158189
 H        -0.425920        -0.393847         1.433393
 H        -0.652184         0.075318        -0.249697
 H        -0.216025        -1.565754         0.004805
 H         2.328305         0.038058         1.976217
 H         2.993367        -1.455265         0.969587
 H         4.606989         2.220441        -0.379069
 H         5.412410         1.210707         0.965810
 H         3.255585         1.154864        -1.958737
 H         1.682849        -0.280159        -2.283391
 H         2.198053        -1.795281        -1.382025
