19
Iteration:   753charge 0 multiplicity 1
 C         0.032526        -0.578742         0.219581
 C         1.449863        -0.204315         0.011478
 C         2.736791        -0.356318         0.950839
 C         3.140394         0.886835         0.202918
 C         4.621602         1.220060         0.112243
 O         4.722052         0.100103        -0.731646
 C         3.250717         0.358568        -1.151790
 C         2.136348        -0.575699        -1.293601
 O         1.677719         1.321658         0.163313
 H        -0.297430        -0.263253         1.165979
 H        -0.627655        -0.033932        -0.546039
 H        -0.172763        -1.754718         0.113121
 H         2.575056        -0.192197         2.024876
 H         3.386035        -1.221960         0.855009
 H         4.929785         2.164708        -0.497194
 H         5.352807         1.039763         0.974447
 H         3.397492         1.150049        -2.004111
 H         1.545385        -0.497735        -2.240176
 H         2.416728        -1.660274        -1.192369
