19
Iteration:  2652
 C         0.039574        -0.589111         0.297822
 C         1.400872        -0.129397        -0.012726
 C         2.504998        -0.381804         1.016052
 C         3.156275         0.801994         0.219849
 C         4.651448         1.279463         0.133550
 O         4.797695         0.101020        -0.766702
 C         3.405864         0.330180        -1.189403
 C         2.119833        -0.641029        -1.315398
 O         1.741647         1.356651         0.095247
 H        -0.120546        -0.427602         1.370875
 H        -0.773421        -0.044292        -0.291512
 H        -0.396763        -1.667541         0.133526
 H         2.235288         0.093366         1.972438
 H         3.195573        -1.204614         1.083123
 H         4.787394         2.147274        -0.524669
 H         5.437416         1.259513         0.911081
 H         3.196708         0.960950        -2.068535
 H         1.495610        -0.217363        -2.146508
 H         2.297731        -1.784842        -1.318074
