19
Iteration:  1669charge 0 multiplicity 1
 C        -0.070971        -0.563167         0.263533
 C         1.402859        -0.250682        -0.039826
 C         2.542488        -0.368462         1.034042
 C         3.121798         0.867322         0.298661
 C         4.650015         1.198946         0.231907
 O         4.878463         0.184973        -0.953846
 C         3.330274         0.340784        -1.142989
 C         2.149145        -0.653916        -1.337309
 O         1.757081         1.366328         0.140444
 H        -0.441401         0.160572         1.072304
 H        -0.649953        -0.364587        -0.598029
 H        -0.155453        -1.690997         0.544562
 H         2.303853        -0.055096         2.058055
 H         3.223519        -1.209437         1.075627
 H         4.962248         2.148129        -0.347573
 H         5.137217         0.870846         1.075482
 H         3.345814         1.257318        -1.845334
 H         1.473895        -0.559695        -2.363559
 H         2.454435        -1.743134        -1.182585
