19
Iteration:   448
 C        -0.034754        -0.507801         0.324970
 C         1.454618        -0.222049         0.048601
 C         2.550334        -0.402674         1.097048
 C         3.148480         0.808310         0.249136
 C         4.643444         1.078777         0.235401
 O         4.800680         0.279608        -1.000440
 C         3.307170         0.447680        -1.265947
 C         2.212339        -0.660767        -1.265049
 O         1.713038         1.318382         0.084708
 H        -0.473059        -0.128433         1.131614
 H        -0.531282        -0.092242        -0.592811
 H        -0.128162        -1.673428         0.171945
 H         2.227798        -0.249822         2.142854
 H         3.207326        -1.273680         0.997014
 H         4.881486         2.194007         0.010663
 H         5.231116         0.663772         0.976250
 H         3.205689         1.364616        -1.819423
 H         1.524959        -0.686784        -2.132638
 H         2.582879        -1.695464        -1.156146
