19
Iteration:  3921charge 0 multiplicity 1
 C         0.007766        -0.517477         0.208866
 C         1.457096        -0.229239         0.048779
 C         2.536137        -0.357256         1.119386
 C         3.133499         0.770555         0.209184
 C         4.534834         1.208120         0.126135
 O         4.838337         0.207178        -0.902971
 C         3.375937         0.274295        -1.176094
 C         2.173702        -0.652526        -1.330906
 O         1.748631         1.365723         0.154132
 H        -0.195358         0.019981         1.190561
 H        -0.697887        -0.121033        -0.532913
 H        -0.094903        -1.558361         0.505866
 H         2.158773         0.181625         2.002823
 H         2.924486        -1.309957         1.409235
 H         4.700047         2.194477        -0.362684
 H         5.206371         1.198029         1.064086
 H         3.296276         1.015381        -1.965765
 H         1.564445        -0.494097        -2.163483
 H         2.450455        -1.768995        -1.460210
