19
Iteration:  1773charge 0 multiplicity 1
 C         0.049116        -0.631340         0.359914
 C         1.387849        -0.176312         0.039173
 C         2.575300        -0.306406         0.981679
 C         3.081411         0.865710         0.197951
 C         4.543017         1.178567         0.199126
 O         4.822130         0.140786        -0.829986
 C         3.415429         0.268421        -1.142492
 C         2.134681        -0.618569        -1.422822
 O         1.798446         1.407894         0.078417
 H        -0.232875        -0.532052         1.393240
 H        -0.752357         0.040711        -0.226422
 H        -0.179237        -1.627372         0.061329
 H         2.205604        -0.036431         1.976110
 H         3.025209        -1.303447         1.028466
 H         4.754500         2.162376        -0.099018
 H         5.143811         0.997973         1.190627
 H         3.251349         1.001342        -1.870316
 H         1.698440        -0.306384        -2.256828
 H         2.248093        -1.651386        -1.551883
