19
Iteration:   988charge 0 multiplicity 1
 C         0.045792        -0.495739         0.141539
 C         1.457288        -0.126579         0.001620
 C         2.616413        -0.403256         1.024328
 C         3.129968         0.769704         0.288439
 C         4.589438         1.251699         0.137993
 O         4.773612         0.168752        -0.853533
 C         3.332447         0.318190        -1.158038
 C         2.101704        -0.664060        -1.316616
 O         1.757854         1.299659         0.230946
 H        -0.490244         0.002907         0.924598
 H        -0.557894        -0.295539        -0.800536
 H         0.099315        -1.532590         0.285357
 H         2.408949        -0.171404         2.078675
 H         3.274472        -1.264712         0.872178
 H         4.670658         2.255894        -0.452908
 H         5.222886         1.166686         1.044763
 H         3.007255         1.120331        -1.770616
 H         1.562502        -0.379656        -2.192121
 H         2.351389        -1.715206        -1.280100
