19
Iteration:  2661
 C         0.068718        -0.558556         0.274999
 C         1.461325        -0.105899        -0.011602
 C         2.512953        -0.356661         1.027676
 C         3.173756         0.813549         0.171194
 C         4.595596         1.266103         0.113054
 O         4.840322         0.095999        -0.733606
 C         3.343016         0.289336        -1.214020
 C         2.059640        -0.664731        -1.366291
 O         1.718658         1.368181         0.183001
 H        -0.174013        -0.340506         1.270194
 H        -0.628723        -0.002553        -0.345559
 H         0.164887        -1.715174         0.182316
 H         2.302165        -0.019735         1.994569
 H         2.792188        -1.365698         1.155681
 H         4.559003         2.211852        -0.385345
 H         5.454779         1.300993         0.880374
 H         3.459887         0.995185        -2.150894
 H         1.532919        -0.488770        -2.332252
 H         2.341129        -1.717133        -1.221788
