19
Iteration:  2993charge 0 multiplicity 1
 C         0.086921        -0.473990         0.336040
 C         1.505625        -0.159312        -0.047285
 C         2.629244        -0.349794         0.993551
 C         3.081870         0.888173         0.130659
 C         4.550398         1.171069         0.209219
 O         4.739176         0.066146        -0.754979
 C         3.322508         0.334528        -1.251532
 C         2.230296        -0.678375        -1.313571
 O         1.659325         1.355796         0.099295
 H        -0.057858        -0.322476         1.419805
 H        -0.633587         0.166617        -0.181970
 H        -0.153270        -1.441765        -0.012562
 H         2.534858        -0.127124         2.086512
 H         3.214655        -1.251032         0.945452
 H         4.757045         2.263965        -0.165153
 H         4.931945         0.996400         1.150844
 H         3.457812         1.160742        -2.040756
 H         1.518023        -0.776976        -2.178867
 H         2.495763        -1.725210        -1.047690
