19
Iteration:  1709
 C        -0.005499        -0.520761         0.181998
 C         1.490090        -0.185941         0.017959
 C         2.602878        -0.400523         1.076046
 C         3.124707         0.826299         0.202583
 C         4.549344         1.274740         0.160026
 O         4.812730         0.133487        -0.828974
 C         3.309639         0.324907        -1.204765
 C         2.094251        -0.679139        -1.330121
 O         1.825187         1.352812         0.176439
 H        -0.359352        -0.204564         1.135511
 H        -0.707587        -0.151405        -0.672455
 H        -0.039263        -1.565239         0.213855
 H         2.241131        -0.088600         2.084003
 H         3.034244        -1.422357         1.038600
 H         4.648591         2.252840        -0.249094
 H         5.182083         1.200140         1.136193
 H         3.328556         1.140286        -1.940358
 H         1.446482        -0.453445        -2.146082
 H         2.367317        -1.681259        -1.230358
