19
Iteration:    62
 C         0.014713        -0.518045         0.223429
 C         1.485546        -0.184896         0.095736
 C         2.703306        -0.320672         1.041238
 C         3.107199         0.866070         0.149334
 C         4.691433         1.217875         0.209719
 O         4.704609         0.169438        -0.848071
 C         3.314140         0.316570        -1.188689
 C         2.163272        -0.707480        -1.373127
 O         1.621102         1.299011         0.142555
 H        -0.363771        -0.400431         1.375685
 H        -0.577251         0.259455        -0.309334
 H        -0.247985        -1.526003        -0.087008
 H         2.621898        -0.011268         2.111653
 H         3.313974        -1.292669         1.037275
 H         5.101785         2.183279        -0.088511
 H         5.211738         0.815634         1.175183
 H         3.214605         1.187638        -1.975548
 H         1.610495        -0.493274        -2.282609
 H         2.468467        -1.768175        -1.388445
