19
Iteration:  2276
 C        -0.024576        -0.607801         0.377822
 C         1.414629        -0.109000        -0.043215
 C         2.517043        -0.347760         1.030253
 C         3.089580         0.824179         0.163887
 C         4.575794         1.219586         0.200359
 O         4.872381         0.141335        -0.833603
 C         3.448867         0.223509        -1.181800
 C         2.069283        -0.626735        -1.400496
 O         1.833707         1.396582         0.126619
 H        -0.061122        -0.506186         1.536836
 H        -0.838548         0.002217        -0.084029
 H        -0.078967        -1.634751         0.025314
 H         2.267436        -0.005642         2.019105
 H         3.121258        -1.230995         0.974931
 H         4.645060         2.193114        -0.325896
 H         4.989888         1.291609         1.242096
 H         3.361857         0.888718        -2.013903
 H         1.497137        -0.224539        -2.326230
 H         2.047299        -1.808552        -1.327534
