19
Iteration:   862
 C         0.069745        -0.547881         0.192978
 C         1.547281        -0.235202         0.083257
 C         2.763494        -0.390531         0.984930
 C         3.087609         0.870518         0.125417
 C         4.563796         1.205948         0.196122
 O         4.619718         0.070616        -0.731416
 C         3.290513         0.445761        -1.218342
 C         2.158365        -0.570858        -1.270135
 O         1.713512         1.329183         0.116541
 H        -0.373157        -0.261108         1.130122
 H        -0.449185        -0.046818        -0.676064
 H        -0.165616        -1.716891         0.220273
 H         2.470081        -0.095017         2.009983
 H         3.392377        -1.278303         0.939432
 H         5.051629         2.124798        -0.374847
 H         5.207908         1.001197         1.147147
 H         3.112562         1.117764        -2.095361
 H         1.488959        -0.461419        -2.173978
 H         2.484811        -1.631225        -1.241510
