19
Iteration:  1778charge 0 multiplicity 1
 C         0.011151        -0.621404         0.354162
 C         1.375824        -0.169840         0.032720
 C         2.517296        -0.321712         1.018437
 C         3.070249         0.851983         0.224465
 C         4.563562         1.197100         0.193909
 O         4.853291         0.151561        -0.838498
 C         3.434156         0.247492        -1.156326
 C         2.140311        -0.658603        -1.431184
 O         1.803189         1.443402         0.097788
 H        -0.192455        -0.594465         1.466189
 H        -0.710089        -0.131780        -0.177641
 H        -0.015707        -1.731028         0.057596
 H         2.142003        -0.037388         2.027318
 H         3.131607        -1.260936         0.925700
 H         4.982190         2.184185        -0.283444
 H         5.038039         0.968599         1.088540
 H         3.192530         1.026610        -2.005975
 H         1.588728         0.032195        -2.321426
 H         2.320585        -1.789258        -1.585781
