19
Iteration:  1661
 C        -0.016715        -0.538251         0.261047
 C         1.430380        -0.276968         0.015159
 C         2.592772        -0.352824         1.030645
 C         3.072162         0.856391         0.206389
 C         4.667854         1.174636         0.204298
 O         4.792490         0.177258        -0.894590
 C         3.307034         0.379024        -1.167635
 C         2.153658        -0.673388        -1.356238
 O         1.761964         1.357278         0.143200
 H        -0.358621         0.174463         1.124130
 H        -0.537118        -0.252627        -0.729696
 H        -0.285507        -1.636325         0.629147
 H         2.135505        -0.060461         1.979319
 H         3.208555        -1.272231         1.099844
 H         5.129372         2.233771         0.053793
 H         5.148111         0.840129         1.171291
 H         3.223414         1.329953        -1.844528
 H         1.675087        -0.558870        -2.324536
 H         2.630946        -1.691494        -1.291528
