19
Iteration:  1931charge 0 multiplicity 1
 C        -0.035294        -0.525807         0.251496
 C         1.474736        -0.149522         0.088444
 C         2.665898        -0.352818         0.948635
 C         3.072529         0.940852         0.165868
 C         4.640094         1.181469         0.216798
 O         4.697972         0.084921        -0.791728
 C         3.315041         0.368031        -1.215476
 C         2.270005        -0.678306        -1.303897
 O         1.662258         1.316351         0.118251
 H        -0.306475        -0.416671         1.392413
 H        -0.515576         0.207743        -0.340915
 H        -0.022994        -1.651025        -0.095354
 H         2.701021        -0.160436         2.045899
 H         3.315165        -1.289766         0.763336
 H         5.091436         2.173657        -0.264711
 H         4.963272         1.029912         1.198979
 H         3.429302         1.018584        -2.161213
 H         1.477520        -0.534331        -2.073712
 H         2.586099        -1.721280        -1.336180
