19
Iteration:  1170charge 0 multiplicity 1
 C         0.027710        -0.452312         0.258980
 C         1.449980        -0.194819        -0.018032
 C         2.635526        -0.358741         1.030029
 C         3.071485         0.827715         0.241026
 C         4.644700         1.152377         0.227098
 O         4.749885         0.220921        -0.910316
 C         3.300388         0.366938        -1.144043
 C         2.241180        -0.711300        -1.365618
 O         1.683072         1.269426         0.141610
 H        -0.363805         0.119735         1.184630
 H        -0.569658        -0.156528        -0.562311
 H        -0.170369        -1.460534         0.452397
 H         2.270470        -0.088973         2.015185
 H         3.288758        -1.244412         1.087000
 H         4.915013         2.200642        -0.112557
 H         5.110455         0.803803         1.219778
 H         3.234307         1.155300        -1.905874
 H         1.685251        -0.460593        -2.324699
 H         2.545755        -1.790392        -1.337752
