19
Iteration:  2867
 C        -0.000836        -0.534137         0.278437
 C         1.392872        -0.229599         0.003088
 C         2.604751        -0.262733         1.091874
 C         3.146846         0.803828         0.221439
 C         4.595590         1.212921         0.196589
 O         4.846650         0.199001        -0.843948
 C         3.309483         0.291822        -1.191937
 C         2.074366        -0.741184        -1.352235
 O         1.784642         1.362598         0.043941
 H        -0.359247         0.003130         1.171234
 H        -0.516843        -0.282388        -0.674712
 H        -0.003607        -1.636203         0.573801
 H         2.264326         0.052833         2.098131
 H         3.166743        -1.316238         1.181471
 H         4.883263         2.211919        -0.086721
 H         5.238292         0.959847         1.155385
 H         3.312253         1.127300        -1.885074
 H         1.594054        -0.307756        -2.236355
 H         2.172661        -1.805595        -1.296774
