19
Iteration:  1665
 C        -0.055138        -0.561174         0.276425
 C         1.408603        -0.271021        -0.016379
 C         2.563968        -0.361633         1.031031
 C         3.089287         0.876516         0.260257
 C         4.663410         1.200888         0.214999
 O         4.843212         0.178653        -0.931205
 C         3.311988         0.366113        -1.162283
 C         2.143521        -0.672386        -1.357802
 O         1.768417         1.360047         0.142732
 H        -0.356171         0.098718         1.000611
 H        -0.551203        -0.280641        -0.671572
 H        -0.194928        -1.521744         0.560403
 H         2.213231        -0.048663         2.036733
 H         3.251229        -1.237577         1.099006
 H         5.038757         2.105920        -0.145419
 H         5.143246         0.822857         1.191058
 H         3.330617         1.222100        -1.730572
 H         1.626030        -0.574836        -2.280410
 H         2.532600        -1.649381        -1.230554
