19
Iteration:  1491charge 0 multiplicity 1
 C        -0.093048        -0.594507         0.256807
 C         1.376152        -0.203617         0.021775
 C         2.531738        -0.388082         1.073010
 C         3.158693         0.725859         0.279746
 C         4.621557         1.220034         0.140724
 O         4.853685         0.220943        -0.896803
 C         3.391168         0.347882        -1.162963
 C         2.106312        -0.625121        -1.357266
 O         1.837335         1.381384         0.160712
 H        -0.508899         0.001159         0.973501
 H        -0.681966        -0.439750        -0.774733
 H        -0.165080        -1.702271         0.472959
 H         2.167387        -0.122701         2.071023
 H         3.112521        -1.323088         1.154954
 H         4.523871         2.213307        -0.338267
 H         5.459504         1.310542         0.900621
 H         3.416670         1.166661        -1.869862
 H         1.418263        -0.347626        -2.232207
 H         2.424976        -1.699175        -1.426710
