19
Iteration:  2134charge 0 multiplicity 1
 C         0.088705        -0.443118         0.347082
 C         1.490228        -0.189333         0.050533
 C         2.671481        -0.373872         0.963706
 C         3.096243         0.903410         0.136255
 C         4.611366         1.167498         0.252493
 O         4.743329         0.098857        -0.756455
 C         3.313705         0.390491        -1.250921
 C         2.158468        -0.660160        -1.341383
 O         1.616570         1.257573         0.053340
 H        -0.347225        -0.051253         1.322264
 H        -0.540638         0.161992        -0.348082
 H        -0.120624        -1.441299         0.099611
 H         2.563372        -0.205720         2.031195
 H         3.498594        -1.099676         0.776326
 H         4.854004         2.152696        -0.033482
 H         5.239707         0.625055         1.118235
 H         3.358604         1.308537        -2.038679
 H         1.420771        -0.434898        -2.173680
 H         2.473507        -1.778532        -1.224968
