19
Iteration:  4519charge 0 multiplicity 1
 C         0.050299        -0.523148         0.213414
 C         1.457888        -0.153073         0.066444
 C         2.684238        -0.323978         1.044354
 C         3.060547         0.886244         0.162855
 C         4.587985         1.208572         0.134850
 O         4.718767         0.057022        -0.778979
 C         3.331392         0.309367        -1.202568
 C         2.195415        -0.672156        -1.289041
 O         1.684241         1.341035         0.140544
 H        -0.213054        -0.169803         1.307509
 H        -0.500172         0.312706        -0.321395
 H        -0.204089        -1.557259        -0.174364
 H         2.315314        -0.002419         2.064145
 H         3.273735        -1.246556         0.898820
 H         4.775067         2.161636        -0.335232
 H         5.279872         1.184266         1.075209
 H         3.483643         0.993128        -2.084756
 H         1.691900        -0.591253        -2.249228
 H         2.557505        -1.756540        -1.351487
