19
Iteration:  1030charge 0 multiplicity 1
 C        -0.111923        -0.571302         0.302348
 C         1.417920        -0.138028         0.033944
 C         2.662902        -0.359518         0.985886
 C         3.142051         0.770568         0.179635
 C         4.548989         1.197305         0.263659
 O         4.829522         0.129204        -0.854035
 C         3.352205         0.410850        -1.192492
 C         2.218325        -0.606558        -1.370128
 O         1.734564         1.311637         0.094284
 H        -0.310645        -0.414205         1.510258
 H        -0.963149        -0.140313        -0.334833
 H         0.028754        -1.637967         0.310765
 H         2.471334        -0.066451         1.981178
 H         3.186142        -1.282628         1.026384
 H         4.633619         2.307245        -0.142336
 H         5.051863         0.929270         1.119489
 H         3.356744         1.320830        -1.933946
 H         1.552900        -0.394009        -2.153872
 H         2.531338        -1.633249        -1.492604
