19
Iteration:  2936
 C         0.011858        -0.549241         0.255768
 C         1.514272        -0.142909         0.039481
 C         2.550495        -0.340987         0.987585
 C         3.136377         0.831131         0.172770
 C         4.537991         1.247737         0.182239
 O         4.848462         0.116878        -0.821026
 C         3.391125         0.231359        -1.159801
 C         2.069192        -0.644374        -1.278121
 O         1.752062         1.361564         0.095080
 H        -0.387000        -0.215521         1.210809
 H        -0.443841        -0.187936        -0.672127
 H         0.031034        -1.615002         0.312650
 H         2.433140         0.189676         2.027208
 H         3.044085        -1.375408         0.823896
 H         4.626537         2.333445        -0.211867
 H         5.087096         1.136189         1.151220
 H         3.246162         1.011602        -2.015280
 H         1.368446        -0.292615        -2.013057
 H         2.183151        -1.751486        -1.224642
