19
Iteration:  1796charge 0 multiplicity 1
 C         0.006092        -0.663136         0.304738
 C         1.387586        -0.111342        -0.030733
 C         2.513820        -0.368956         1.026845
 C         3.164989         0.808488         0.169012
 C         4.693559         1.216616         0.167954
 O         4.868872         0.137025        -0.800288
 C         3.366396         0.310813        -1.212225
 C         2.090999        -0.589991        -1.329236
 O         1.734967         1.411184         0.119161
 H        -0.264889        -0.377165         1.330367
 H        -0.934508        -0.337510        -0.330564
 H        -0.037459        -1.737497         0.264641
 H         2.191413         0.022681         2.015888
 H         2.841755        -1.411955         1.145488
 H         4.712047         2.233529        -0.132225
 H         5.402381         1.132839         1.078183
 H         3.284299         1.049661        -2.007284
 H         1.608066        -0.451431        -2.179648
 H         2.188546        -1.637490        -1.273357
