19
Iteration:  3202charge 0 multiplicity 1
 C         0.039447        -0.445648         0.304381
 C         1.484138        -0.189476        -0.015272
 C         2.640242        -0.315744         1.007013
 C         3.087326         0.814556         0.154025
 C         4.608040         1.220146         0.243367
 O         4.759566         0.208732        -0.784318
 C         3.337352         0.223662        -1.210620
 C         2.158014        -0.665962        -1.265131
 O         1.715719         1.268164         0.026047
 H        -0.246129         0.006460         1.257596
 H        -0.563132         0.108250        -0.483820
 H        -0.350082        -1.466363         0.133300
 H         2.477562        -0.102950         2.068811
 H         3.196259        -1.331985         1.115090
 H         5.011965         2.148622        -0.297444
 H         5.081613         0.924864         1.161289
 H         3.149778         1.117693        -1.928364
 H         1.375155        -0.503576        -2.132789
 H         2.336816        -1.748608        -1.204353
