19
Iteration:  3001charge 0 multiplicity 1
 C         0.081985        -0.474272         0.270386
 C         1.469718        -0.098757         0.023880
 C         2.698617        -0.349043         0.989413
 C         3.081410         0.890664         0.146193
 C         4.580514         1.193976         0.199154
 O         4.715862         0.114202        -0.722394
 C         3.308956         0.327327        -1.226126
 C         2.151150        -0.743899        -1.346477
 O         1.718151         1.324637         0.084156
 H        -0.033596        -0.420493         1.364839
 H        -0.701962         0.033527        -0.254627
 H        -0.216894        -1.470383         0.024827
 H         2.319570         0.023868         1.988193
 H         3.222285        -1.295597         0.808235
 H         4.918771         2.150249        -0.153807
 H         5.015909         0.927656         1.168745
 H         3.389035         1.102010        -1.975052
 H         1.379525        -0.798612        -2.039826
 H         2.620277        -1.740507        -1.224997
