19
Iteration:  4574charge 0 multiplicity 1
 C         0.019463        -0.529589         0.339403
 C         1.446352        -0.143011        -0.016097
 C         2.555307        -0.268610         1.023397
 C         3.121216         0.751367         0.209020
 C         4.609194         1.251880         0.172191
 O         4.831902         0.126406        -0.839623
 C         3.430088         0.265575        -1.164160
 C         2.088652        -0.605344        -1.328563
 O         1.733883         1.283400         0.023044
 H        -0.213629        -0.001901         1.323032
 H        -0.830464        -0.365514        -0.402606
 H        -0.154310        -1.642156         0.605719
 H         2.052146        -0.040405         1.963345
 H         3.095160        -1.189843         1.292175
 H         4.822404         2.289617         0.101398
 H         5.206350         0.940820         1.076619
 H         3.328720         1.155428        -1.838896
 H         1.525362        -0.175386        -2.140608
 H         2.205905        -1.715337        -1.572989
