19
Iteration:  4442
 C         0.024859        -0.438339         0.340185
 C         1.481762        -0.209519        -0.023348
 C         2.552308        -0.325988         1.021935
 C         3.135223         0.826596         0.161680
 C         4.616554         1.154449         0.225908
 O         4.731195         0.184697        -0.807619
 C         3.343321         0.334264        -1.284325
 C         2.214623        -0.711618        -1.341876
 O         1.702362         1.302501         0.108867
 H        -0.276393         0.327409         1.210052
 H        -0.491866        -0.204051        -0.615527
 H         0.011988        -1.481338         0.671058
 H         2.344751         0.107881         2.061591
 H         3.241760        -1.141520         0.889037
 H         4.822390         2.117802        -0.137564
 H         4.888083         0.819698         1.281922
 H         3.360814         1.193256        -1.972365
 H         1.650818        -0.803356        -2.202809
 H         2.411923        -1.807607        -1.039452
