19
Iteration:  4887
 C        -0.008593        -0.540407         0.216776
 C         1.477526        -0.165913         0.077780
 C         2.610635        -0.346939         1.063672
 C         3.134908         0.820262         0.124774
 C         4.579700         1.252125         0.115047
 O         4.857858         0.118294        -0.727397
 C         3.344600         0.302979        -1.232194
 C         2.069306        -0.643061        -1.295968
 O         1.712090         1.335010         0.110962
 H        -0.388703        -0.562030         1.332395
 H        -0.517132         0.175276        -0.441259
 H        -0.101015        -1.474186        -0.262714
 H         2.742281         0.056729         2.129404
 H         3.000801        -1.354291         1.013808
 H         4.804332         2.277594        -0.304306
 H         5.069678         1.006090         1.005543
 H         3.474310         1.045479        -2.011548
 H         1.438207        -0.336218        -2.077104
 H         2.189859        -1.754569        -1.184224
