19
Iteration:  2917charge 0 multiplicity 1
 C        -0.059652        -0.559485         0.199729
 C         1.414878        -0.150836         0.015927
 C         2.680330        -0.368948         1.042819
 C         3.077164         0.871270         0.155735
 C         4.628753         1.214098         0.153352
 O         4.732493         0.132372        -0.790418
 C         3.331489         0.258897        -1.227391
 C         2.203849        -0.717037        -1.322893
 O         1.761143         1.418184         0.200704
 H        -0.473758         0.114986         1.020998
 H        -0.617011        -0.249298        -0.677327
 H        -0.039467        -1.575311         0.522085
 H         2.314419        -0.108858         2.048360
 H         3.297813        -1.171024         1.182807
 H         4.869872         2.254709        -0.338046
 H         5.176011         1.147491         1.011419
 H         3.466780         1.065842        -1.997975
 H         1.551433        -0.580894        -2.218763
 H         2.558880        -1.799422        -1.150825
