19
Iteration:   626charge 0 multiplicity 1
 C        -0.097231        -0.538189         0.170642
 C         1.352559        -0.155525         0.033711
 C         2.646940        -0.495081         1.121582
 C         3.164911         0.722336         0.316318
 C         4.585269         1.242598         0.100265
 O         4.880943         0.240971        -0.906546
 C         3.377473         0.295644        -1.194937
 C         2.071504        -0.548517        -1.279939
 O         1.815816         1.336816         0.146757
 H        -0.681241        -0.175484         1.182605
 H        -0.658218        -0.364389        -0.715418
 H        -0.043429        -1.551891         0.282814
 H         2.444724        -0.509625         2.212722
 H         3.204541        -1.406253         0.859049
 H         4.115840         2.253146        -0.199909
 H         5.449882         1.460572         0.734048
 H         3.368135         1.091324        -1.845245
 H         1.491168        -0.277453        -2.158092
 H         2.279243        -1.559736        -1.233532
