19
Iteration:  1048
 C         0.118921        -0.539496         0.326931
 C         1.463229        -0.185442        -0.000596
 C         2.636209        -0.385252         0.920028
 C         3.067679         0.895813         0.120837
 C         4.600432         1.172564         0.323938
 O         4.715983         0.196394        -0.779404
 C         3.338014         0.344803        -1.265108
 C         2.132627        -0.655158        -1.337591
 O         1.675295         1.329184         0.124064
 H        -0.182968        -0.308090         1.377431
 H        -0.374354         0.103685        -0.349034
 H        -0.240334        -1.571745         0.106501
 H         2.460202        -0.216747         2.007410
 H         3.339066        -1.254577         0.796299
 H         5.193202         1.991889         0.027047
 H         5.087700         0.774631         1.271410
 H         3.423224         1.139767        -2.029566
 H         1.633199        -0.616379        -2.375246
 H         2.433941        -1.737828        -1.235770
