19
Iteration:   653charge 0 multiplicity 1
 C         0.064420        -0.432880         0.267923
 C         1.476449        -0.172395         0.013480
 C         2.644284        -0.472115         0.968954
 C         3.138227         0.840358         0.160044
 C         4.612686         1.311686         0.186225
 O         4.724806         0.187153        -0.828138
 C         3.289540         0.287542        -1.235031
 C         2.174795        -0.692399        -1.415890
 O         1.709850         1.270558         0.289314
 H        -0.305231         0.234336         1.031582
 H        -0.471089        -0.193490        -0.714622
 H        -0.308686        -1.502778         0.581802
 H         2.403669        -0.166840         1.987091
 H         3.082556        -1.485475         1.010065
 H         4.756350         2.404380         0.040084
 H         5.179774         0.972764         1.133950
 H         3.289925         1.125206        -2.105511
 H         1.533950        -0.469664        -2.301090
 H         2.407269        -1.798294        -1.215529
