19
Iteration:   655charge 0 multiplicity 1
 C         0.074301        -0.413826         0.278725
 C         1.480219        -0.181820         0.009048
 C         2.655803        -0.458024         0.978321
 C         3.122143         0.840185         0.162052
 C         4.616401         1.292860         0.208308
 O         4.714280         0.184633        -0.823312
 C         3.290696         0.303178        -1.267360
 C         2.177657        -0.691768        -1.416788
 O         1.698947         1.264243         0.289103
 H        -0.260882         0.185805         0.993134
 H        -0.501088        -0.197746        -0.686832
 H        -0.267396        -1.490053         0.583076
 H         2.396994        -0.171676         2.007172
 H         3.106404        -1.459262         1.018423
 H         4.772018         2.358520         0.027005
 H         5.151197         0.995494         1.074739
 H         3.282302         1.074263        -2.114706
 H         1.570342        -0.493404        -2.379039
 H         2.458336        -1.791655        -1.227052
