19
Iteration:  3043charge 0 multiplicity 1
 C         0.013635        -0.501617         0.231280
 C         1.410095        -0.142588         0.035764
 C         2.496874        -0.343596         1.111077
 C         3.143146         0.803847         0.246849
 C         4.600184         1.228878         0.072403
 O         4.882799         0.127183        -0.837203
 C         3.361569         0.288859        -1.201294
 C         2.130471        -0.624002        -1.312966
 O         1.714884         1.301371         0.147017
 H        -0.421566        -0.043129         1.173424
 H        -0.606058        -0.421116        -0.692396
 H         0.096928        -1.639524         0.208506
 H         2.254791         0.083979         2.109106
 H         3.145564        -1.241696         1.233225
 H         4.676376         2.091751        -0.532273
 H         5.339139         1.222456         0.988119
 H         3.334950         1.132321        -1.826008
 H         1.811078        -0.362582        -2.296062
 H         2.262065        -1.715939        -1.344177
