19
Iteration:  1941
 C         0.015241        -0.531654         0.220200
 C         1.469084        -0.210237         0.021883
 C         2.785918        -0.371899         0.993802
 C         3.080613         0.929369         0.116673
 C         4.616823         1.226095         0.213792
 O         4.710001         0.040136        -0.764432
 C         3.334144         0.348332        -1.209806
 C         2.134697        -0.637529        -1.280457
 O         1.636817         1.395135         0.135590
 H        -0.316509        -0.462884         1.378356
 H        -0.649793         0.044376        -0.411937
 H        -0.337643        -1.632469        -0.110787
 H         2.490122        -0.293209         2.060644
 H         3.484393        -1.214691         0.642337
 H         5.175381         2.162137        -0.237838
 H         5.123679         1.001726         1.154148
 H         3.314116         1.235208        -1.869945
 H         1.713904        -0.756367        -2.263688
 H         2.534718        -1.592692        -1.018232
