19
Iteration:  2881
 C         0.007852        -0.487370         0.245259
 C         1.540249        -0.164177         0.059257
 C         2.591067        -0.386412         1.094271
 C         3.072463         0.868718         0.220684
 C         4.637134         1.183794         0.150335
 O         4.766177         0.143342        -0.877059
 C         3.390475         0.287698        -1.145240
 C         2.199439        -0.624274        -1.275354
 O         1.641555         1.323314         0.039279
 H        -0.378144         0.197348         0.988164
 H        -0.625698        -0.444192        -0.686383
 H        -0.184686        -1.531521         0.530635
 H         2.293402         0.054667         2.125647
 H         3.261631        -1.323185         1.084123
 H         4.832676         2.216959        -0.297590
 H         5.220890         0.888549         1.102950
 H         3.182001         1.039290        -2.010059
 H         1.469912        -0.484916        -2.077482
 H         2.467738        -1.732330        -1.374969
