19
Iteration:   419charge 0 multiplicity 1
 C         0.022413        -0.565853         0.319532
 C         1.423136        -0.115127        -0.016218
 C         2.439558        -0.412351         1.020457
 C         3.192603         0.800793         0.250875
 C         4.600259         1.270456         0.110099
 O         4.840843         0.258322        -0.930941
 C         3.326738         0.199703        -1.148140
 C         2.151243        -0.676253        -1.357485
 O         1.812777         1.335114         0.221638
 H        -0.271469        -0.461625         1.449455
 H        -0.616539         0.025195        -0.413145
 H         0.054316        -1.574192        -0.028568
 H         2.082452        -0.138273         1.999550
 H         2.838825        -1.438913         1.005536
 H         4.741970         2.334397        -0.264011
 H         5.230770         1.105312         1.013621
 H         3.103817         1.155770        -1.832975
 H         1.706150        -0.306523        -2.254455
 H         2.135395        -1.728398        -1.302524
