19
Iteration:  1996
 C        -0.033820        -0.539313         0.307014
 C         1.434318        -0.189054        -0.016107
 C         2.540032        -0.326761         0.975381
 C         3.172405         0.751251         0.237468
 C         4.630380         1.197271         0.189525
 O         4.896384         0.201241        -0.832932
 C         3.340702         0.297248        -1.146297
 C         2.084415        -0.608380        -1.320410
 O         1.765303         1.326697         0.072594
 H        -0.542676        -0.015852         1.236836
 H        -0.825052        -0.389522        -0.406050
 H        -0.119039        -1.716620         0.544467
 H         2.140980        -0.169916         1.991960
 H         3.109539        -1.329726         1.008340
 H         4.471347         2.166775        -0.411503
 H         5.354925         1.232118         0.967019
 H         3.214359         1.188257        -1.726765
 H         1.583921        -0.280899        -2.216839
 H         2.340592        -1.636122        -1.370342
