19
Iteration:  3409charge 0 multiplicity 1
 C        -0.033191        -0.514176         0.217332
 C         1.480262        -0.195691         0.018248
 C         2.521847        -0.356387         1.062508
 C         3.117288         0.835115         0.207993
 C         4.562364         1.185159         0.115764
 O         4.824785         0.157679        -0.847653
 C         3.377608         0.263116        -1.198482
 C         2.198995        -0.637637        -1.306379
 O         1.754871         1.376214         0.176388
 H        -0.487913         0.097323         0.993674
 H        -0.625513        -0.247802        -0.709984
 H        -0.068322        -1.613777         0.542980
 H         2.268458         0.036642         1.993941
 H         3.138930        -1.265638         1.346307
 H         4.631907         2.063136        -0.557743
 H         5.246745         1.311229         0.982089
 H         3.267438         1.035690        -1.911084
 H         1.538626        -0.788092        -2.140041
 H         2.444523        -1.641825        -1.031005
