19
Iteration:  1552charge 0 multiplicity 1
 C        -0.068864        -0.536778         0.266448
 C         1.446934        -0.225010         0.024380
 C         2.667896        -0.366758         0.941742
 C         3.056256         0.913919         0.183585
 C         4.691280         1.229622         0.237531
 O         4.723980         0.133990        -0.831421
 C         3.342522         0.379995        -1.224164
 C         2.201443        -0.647183        -1.327863
 O         1.736611         1.304494         0.164483
 H        -0.432954        -0.186729         1.341769
 H        -0.627959         0.121162        -0.377195
 H        -0.345125        -1.628367         0.163364
 H         2.422421        -0.078325         1.993109
 H         3.253625        -1.305072         0.969058
 H         5.231909         2.099763        -0.138832
 H         4.812652         0.743098         1.221837
 H         3.325315         1.053542        -2.156839
 H         1.607017        -0.672548        -2.184877
 H         2.659806        -1.650760        -1.208352
