19
Iteration:  1980charge 0 multiplicity 1
 C        -0.016668        -0.607696         0.311676
 C         1.378213        -0.106965         0.037969
 C         2.510829        -0.459419         1.122070
 C         3.121726         0.776102         0.241188
 C         4.577071         1.313388         0.105366
 O         4.870115         0.114436        -0.843700
 C         3.447788         0.308945        -1.189914
 C         2.134739        -0.542527        -1.371714
 O         1.749604         1.330385         0.073493
 H        -0.219534        -0.214691         1.228543
 H        -0.575693        -0.153498        -0.548351
 H         0.055379        -1.598146         0.328640
 H         2.305036         0.025497         2.084624
 H         2.936116        -1.415169         1.238674
 H         4.795159         2.242798        -0.285772
 H         5.216484         1.121676         1.066124
 H         3.413697         1.052156        -2.057378
 H         1.494801        -0.199048        -2.221822
 H         2.149178        -1.680188        -1.417774
