19
Iteration:  3737
 C        -0.046582        -0.541108         0.258472
 C         1.432254        -0.162456         0.003827
 C         2.560424        -0.357138         1.031943
 C         3.152983         0.836709         0.183308
 C         4.567306         1.204053         0.143143
 O         4.805783         0.150982        -0.880491
 C         3.383655         0.293184        -1.196555
 C         2.246399        -0.653693        -1.259682
 O         1.713583         1.368254         0.141205
 H        -0.329280         0.047001         1.212790
 H        -0.705139        -0.142160        -0.558494
 H        -0.231384        -1.575503         0.537664
 H         2.256732        -0.102103         2.124969
 H         2.850897        -1.421709         1.209872
 H         4.608088         2.189165        -0.321623
 H         5.362111         1.104830         0.878648
 H         3.318714         1.209029        -1.858500
 H         1.634032        -0.831113        -2.100541
 H         2.697893        -1.735157        -1.101617
