19
Iteration:  2770charge 0 multiplicity 1
 C         0.004228        -0.584053         0.226728
 C         1.409440        -0.068515         0.033663
 C         2.604544        -0.352815         0.996163
 C         3.137139         0.818326         0.160616
 C         4.608835         1.242708         0.182112
 O         4.825226         0.134405        -0.832489
 C         3.371736         0.210013        -1.172834
 C         2.089654        -0.677519        -1.248089
 O         1.718273         1.398477         0.123227
 H        -0.359503        -0.380198         1.189901
 H        -0.654653        -0.233928        -0.559668
 H        -0.117903        -1.713555         0.193484
 H         2.348741        -0.011833         1.996803
 H         3.387929        -1.175580         0.890320
 H         4.797207         2.233521        -0.305906
 H         5.311303         1.185666         1.143538
 H         3.417339         1.082582        -1.943328
 H         1.581009        -0.354117        -2.176382
 H         2.212528        -1.732634        -1.047837
