19
Iteration:   549charge 0 multiplicity 1
 C         0.038408        -0.581332         0.366300
 C         1.438507        -0.197268        -0.001336
 C         2.664305        -0.420806         0.939786
 C         3.110212         0.868974         0.185825
 C         4.628976         1.152172         0.281342
 O         4.760410         0.174531        -0.796028
 C         3.386324         0.386824        -1.304816
 C         2.110556        -0.574807        -1.349095
 O         1.667004         1.327560         0.110869
 H        -0.081995        -0.350811         1.474778
 H        -0.692138         0.066291        -0.167640
 H        -0.186658        -1.621647         0.202088
 H         2.353009        -0.195556         1.963388
 H         3.253385        -1.342830         0.834251
 H         5.034446         2.180735        -0.034648
 H         5.088963         0.868603         1.221121
 H         3.461372         1.129985        -2.130466
 H         1.491451        -0.279583        -2.182211
 H         2.237014        -1.610050        -1.463163
