19
Iteration:  2711
 C         0.001566        -0.485396         0.288116
 C         1.483314        -0.234331         0.043651
 C         2.612677        -0.366507         1.019854
 C         3.105667         0.877004         0.151467
 C         4.683878         1.184172         0.182505
 O         4.815669         0.147733        -0.798848
 C         3.280765         0.381435        -1.179746
 C         2.128873        -0.665946        -1.303145
 O         1.639337         1.275589         0.063050
 H        -0.359004         0.435171         0.908642
 H        -0.479509        -0.194157        -0.660320
 H        -0.134771        -1.471088         0.675269
 H         2.326508        -0.076535         2.077113
 H         3.469774        -1.159977         1.097162
 H         5.225149         2.101163        -0.213627
 H         5.130990         0.837469         1.103509
 H         3.311638         1.192507        -1.916161
 H         1.527574        -0.528502        -2.230946
 H         2.462348        -1.715921        -1.328581
