19
Iteration:    90
 C         0.036536        -0.447264         0.347744
 C         1.463121        -0.240768         0.047192
 C         2.627571        -0.399343         0.929156
 C         3.092247         0.843224         0.161328
 C         4.551907         1.191724         0.287357
 O         4.763541         0.183537        -0.879325
 C         3.374526         0.393996        -1.246902
 C         2.196911        -0.705503        -1.312758
 O         1.690723         1.302765         0.121525
 H        -0.178664         0.015994         1.209924
 H        -0.577202         0.027625        -0.478879
 H        -0.279690        -1.509682         0.459105
 H         2.439360        -0.106953         1.955860
 H         3.223886        -1.272248         0.938198
 H         4.740461         2.261661        -0.009514
 H         5.131139         0.904407         1.108965
 H         3.290005         1.150898        -1.984428
 H         1.561919        -0.643492        -2.251297
 H         2.592160        -1.759945        -1.210730
