19
Iteration:   389charge 0 multiplicity 1
 C        -0.051607        -0.495745         0.247169
 C         1.459300        -0.210950         0.060104
 C         2.773599        -0.406306         0.945362
 C         3.135595         0.825920         0.155255
 C         4.565306         1.278428         0.119729
 O         4.762765         0.101598        -0.754527
 C         3.268499         0.355084        -1.207017
 C         2.147623        -0.563338        -1.288805
 O         1.741740         1.255773         0.169580
 H        -0.451938        -0.306279         1.346439
 H        -0.491846         0.148975        -0.497136
 H        -0.342217        -1.483017         0.025249
 H         2.651768        -0.145596         2.028608
 H         3.325819        -1.365525         0.839839
 H         4.738481         2.195793        -0.343309
 H         5.158514         1.287919         1.146022
 H         3.193513         1.108979        -1.916806
 H         1.481527        -0.352930        -2.208031
 H         2.412572        -1.725486        -1.266798
