19
Iteration:  2610charge 0 multiplicity 1
 C         0.033021        -0.480827         0.276554
 C         1.502729        -0.199120        -0.007207
 C         2.649132        -0.276535         0.966201
 C         3.115024         0.848979         0.062579
 C         4.638785         1.147247         0.280626
 O         4.712679         0.161150        -0.811614
 C         3.347507         0.335509        -1.294092
 C         2.171137        -0.698224        -1.248622
 O         1.656780         1.304525         0.142954
 H        -0.138490        -0.440051         1.378620
 H        -0.524907         0.292252        -0.357792
 H        -0.131337        -1.576172         0.073672
 H         2.262855         0.026918         2.009141
 H         3.133568        -1.323682         1.176380
 H         5.043226         2.194570         0.059812
 H         5.076463         0.841316         1.197942
 H         3.285594         1.117342        -2.058637
 H         1.512385        -0.442259        -2.099638
 H         2.405564        -1.782678        -0.947178
