19
Iteration:  2669
 C         0.077249        -0.529399         0.276269
 C         1.443941        -0.096563         0.016789
 C         2.580978        -0.353442         1.016754
 C         3.105664         0.806246         0.177764
 C         4.589029         1.264657         0.091922
 O         4.848999         0.095167        -0.743706
 C         3.311915         0.223577        -1.249138
 C         2.106905        -0.630951        -1.357723
 O         1.735553         1.371251         0.204281
 H        -0.282491        -0.263719         1.268241
 H        -0.617273        -0.258604        -0.481310
 H         0.163472        -1.575028         0.078539
 H         2.193091         0.047768         1.954612
 H         2.894861        -1.453508         0.989348
 H         4.643829         2.247616        -0.446762
 H         5.054538         1.267497         1.141776
 H         3.542941         1.135438        -1.862906
 H         1.543635        -0.676532        -2.278909
 H         2.253651        -1.659711        -1.226217
