19
Iteration:  1702charge 0 multiplicity 1
 C         0.067182        -0.520102         0.213240
 C         1.452077        -0.109081         0.077046
 C         2.497450        -0.443869         1.064434
 C         3.139464         0.762401         0.220029
 C         4.572440         1.281495         0.140561
 O         4.824588         0.181520        -0.818852
 C         3.317154         0.310447        -1.178403
 C         2.107814        -0.628151        -1.359975
 O         1.831439         1.324468         0.137584
 H        -0.570347        -0.215934         1.092318
 H        -0.458197        -0.279136        -0.631276
 H         0.028538        -1.656401         0.182328
 H         2.346916        -0.030701         2.067020
 H         2.904430        -1.446884         1.073540
 H         4.883375         2.285210        -0.328636
 H         5.148208         1.205639         0.992579
 H         3.088460         1.017167        -2.010014
 H         1.301490        -0.584398        -2.276413
 H         2.322826        -1.742237        -1.207899
