19
Iteration:  1336charge 0 multiplicity 1
 C         0.000586        -0.459815         0.189842
 C         1.463665        -0.245186         0.035684
 C         2.721175        -0.441837         1.077403
 C         3.073697         0.857558         0.237859
 C         4.616388         1.200997         0.153429
 O         4.730038         0.183385        -0.891103
 C         3.359821         0.333121        -1.164764
 C         2.195938        -0.637979        -1.289113
 O         1.678271         1.327897         0.140295
 H        -0.467618         0.190129         1.014178
 H        -0.523998        -0.209288        -0.798277
 H        -0.308366        -1.403473         0.420239
 H         2.356164        -0.319507         2.120168
 H         3.291455        -1.353978         0.934950
 H         4.805344         2.199897        -0.180210
 H         5.188686         1.020905         1.068728
 H         3.192836         1.163825        -1.839656
 H         1.555322        -0.535029        -2.185958
 H         2.529044        -1.733718        -1.252350
