19
Iteration:   616
 C        -0.084123        -0.610381         0.164438
 C         1.431008        -0.067038         0.078483
 C         2.598588        -0.494845         1.150171
 C         3.208721         0.668309         0.326189
 C         4.578432         1.278532         0.095167
 O         4.854721         0.226474        -0.929697
 C         3.340515         0.308396        -1.130203
 C         2.100558        -0.551153        -1.359715
 O         1.787414         1.325362         0.129977
 H        -0.610241        -0.196566         1.195192
 H        -0.657165        -0.179124        -0.624360
 H        -0.052864        -1.638075         0.109389
 H         2.375590        -0.125999         2.162007
 H         3.111786        -1.467428         1.082377
 H         4.483520         2.343953        -0.355372
 H         5.478557         1.226325         0.803264
 H         3.251563         1.209716        -1.783924
 H         1.427342        -0.318471        -2.135374
 H         2.168395        -1.584115        -1.378177
