19
Iteration:  2070charge 0 multiplicity 1
 C         0.045499        -0.561266         0.205768
 C         1.421835        -0.135777         0.011367
 C         2.512607        -0.358805         1.039455
 C         3.111659         0.763316         0.280597
 C         4.619907         1.240594         0.101545
 O         4.815536         0.123767        -0.882714
 C         3.394535         0.278977        -1.121314
 C         2.125243        -0.591546        -1.248826
 O         1.733297         1.345509         0.108816
 H        -0.382213        -0.339656         1.290999
 H        -0.614184        -0.143517        -0.537236
 H        -0.098733        -1.672797         0.254999
 H         2.372483         0.054307         2.062089
 H         3.206561        -1.274822         0.946298
 H         4.762462         2.245642        -0.304193
 H         5.422434         1.148546         0.983420
 H         3.348029         1.138274        -1.886973
 H         1.619511        -0.140341        -2.098118
 H         2.134958        -1.670287        -1.379613
