19
Iteration:  1973
 C         0.046249        -0.559921         0.259180
 C         1.431099        -0.143116         0.063887
 C         2.513961        -0.392098         1.126971
 C         3.111974         0.794586         0.128300
 C         4.603466         1.312249         0.139494
 O         4.806162         0.110677        -0.807029
 C         3.423723         0.270997        -1.225290
 C         2.142356        -0.564153        -1.367755
 O         1.741219         1.333831         0.128081
 H        -0.435441        -0.288059         1.353124
 H        -0.746669        -0.179028        -0.383810
 H         0.125367        -1.753466         0.172476
 H         2.239942        -0.190057         2.187550
 H         2.918620        -1.490518         1.197704
 H         4.877449         2.218669        -0.497818
 H         5.132600         1.067550         1.085119
 H         3.274086         1.099955        -1.883291
 H         1.645857        -0.131809        -2.214032
 H         2.267510        -1.604380        -1.478935
