19
Iteration:  1729charge 0 multiplicity 1
 C        -0.039698        -0.504746         0.248670
 C         1.434917        -0.255208         0.030194
 C         2.701149        -0.351061         0.947271
 C         3.071609         0.867224         0.183938
 C         4.603116         1.204336         0.158504
 O         4.735934         0.116973        -0.788302
 C         3.378355         0.316258        -1.171287
 C         2.241805        -0.643982        -1.346695
 O         1.655461         1.349947         0.207165
 H        -0.427017        -0.145442         1.186719
 H        -0.483765         0.220823        -0.645918
 H        -0.479492        -1.484475         0.079200
 H         2.585906         0.025963         1.971137
 H         3.479494        -1.147332         0.868113
 H         4.951182         2.090925        -0.291497
 H         5.288665         1.026122         1.122230
 H         3.262233         0.963801        -2.015649
 H         1.747327        -0.456266        -2.167545
 H         2.439623        -1.679527        -1.237188
