19
Iteration:  3928
 C        -0.000809        -0.476562         0.257545
 C         1.473414        -0.235006        -0.006161
 C         2.527601        -0.324279         1.104360
 C         3.086740         0.802640         0.247486
 C         4.593787         1.205056         0.151436
 O         4.813967         0.244391        -0.911740
 C         3.374637         0.274887        -1.182592
 C         2.200548        -0.716923        -1.303864
 O         1.743511         1.330490         0.137938
 H        -0.293428         0.015371         1.188784
 H        -0.602871        -0.226855        -0.681742
 H        -0.248303        -1.579432         0.438168
 H         2.472812         0.198535         2.050876
 H         3.059724        -1.383066         1.321934
 H         4.756273         2.196222        -0.230033
 H         5.113338         0.893854         1.093865
 H         3.242557         0.873837        -2.155147
 H         1.503001        -0.302967        -2.181449
 H         2.337436        -1.757176        -1.510547
