19
Iteration:   260
 C         0.071597        -0.416547         0.198611
 C         1.485890        -0.214881         0.002987
 C         2.746801        -0.465695         0.993012
 C         3.084943         0.896229         0.201777
 C         4.551218         1.318642         0.170512
 O         4.734501         0.092955        -0.829055
 C         3.317416         0.326177        -1.213348
 C         2.125167        -0.695572        -1.320556
 O         1.668282         1.298646         0.234606
 H        -0.164835         0.035506         1.281834
 H        -0.563046         0.094859        -0.433518
 H        -0.217624        -1.474180         0.244417
 H         2.473043        -0.361597         2.082827
 H         3.577785        -1.191556         0.746494
 H         4.810384         2.186659        -0.401100
 H         5.179106         1.201770         1.163613
 H         3.148966         1.172148        -2.031154
 H         1.603677        -0.669752        -2.311948
 H         2.433911        -1.760403        -1.050846
