19
Iteration:  4682charge 0 multiplicity 1
 C         0.026840        -0.549942         0.351242
 C         1.412654        -0.130605        -0.034293
 C         2.508047        -0.280857         1.058996
 C         3.127038         0.802237         0.241934
 C         4.694025         1.170901         0.172117
 O         4.819614         0.178881        -0.806119
 C         3.324241         0.258424        -1.203620
 C         2.195279        -0.678265        -1.420789
 O         1.710217         1.348992         0.086702
 H        -0.092631        -0.388690         1.431482
 H        -0.685798         0.171411        -0.087558
 H        -0.158441        -1.560803         0.098231
 H         2.182264         0.053025         2.097364
 H         2.929366        -1.297769         0.910536
 H         4.722746         2.225517        -0.358222
 H         5.307513         1.122402         1.128187
 H         3.266290         1.081738        -1.950285
 H         1.625908        -0.647900        -2.353631
 H         2.298398        -1.824181        -1.221816
