19
Iteration:  3282charge 0 multiplicity 1
 C        -0.026799        -0.498372         0.222616
 C         1.449446        -0.210419         0.046401
 C         2.723617        -0.304820         1.074644
 C         3.090540         0.889078         0.132235
 C         4.569217         1.213139         0.161772
 O         4.770204         0.076985        -0.782024
 C         3.331534         0.307596        -1.235538
 C         2.192147        -0.642901        -1.259633
 O         1.697319         1.302472         0.123963
 H        -0.466399         0.004906         1.033775
 H        -0.434408        -0.146409        -0.701215
 H        -0.205842        -1.567836         0.305309
 H         2.612419         0.251950         1.975926
 H         3.236611        -1.184076         1.096954
 H         4.880452         2.221537        -0.155311
 H         5.135047         0.973003         1.032940
 H         3.287855         0.872662        -2.203653
 H         1.600069        -0.281034        -2.044034
 H         2.243406        -1.777428        -1.345169
