19
Iteration:  4502charge 0 multiplicity 1
 C         0.018330        -0.449001         0.216721
 C         1.516640        -0.209460         0.025776
 C         2.571772        -0.347265         1.081263
 C         3.169237         0.832607         0.220261
 C         4.615611         1.272512         0.076728
 O         4.794136         0.071184        -0.789420
 C         3.356469         0.316801        -1.185542
 C         2.110480        -0.652136        -1.304273
 O         1.694760         1.281233         0.132730
 H        -0.488749        -0.467412         1.083596
 H        -0.636047        -0.055010        -0.539396
 H        -0.103035        -1.491785        -0.102485
 H         2.407255         0.116573         2.028152
 H         3.232663        -1.195576         1.391683
 H         4.898135         2.210024        -0.490133
 H         5.152392         1.476124         1.023387
 H         3.135952         1.136609        -1.850556
 H         1.424193        -0.358030        -2.211211
 H         2.183569        -1.703207        -1.221472
