19
Iteration:   896charge 0 multiplicity 1
 C        -0.054942        -0.667001         0.325259
 C         1.388874        -0.162774        -0.046720
 C         2.627598        -0.382473         0.970696
 C         3.175296         0.776682         0.154083
 C         4.677199         1.269855         0.157477
 O         4.847847         0.124663        -0.747742
 C         3.367494         0.315788        -1.214348
 C         2.116612        -0.559980        -1.370425
 O         1.663668         1.396817         0.192575
 H        -0.377950        -0.397626         1.382699
 H        -0.869707        -0.252566        -0.282639
 H        -0.058922        -1.792234         0.049853
 H         2.360073         0.101218         1.916546
 H         3.161742        -1.308663         1.155226
 H         4.850564         2.298761        -0.486841
 H         5.221404         1.177925         1.112371
 H         3.517522         1.135996        -1.995759
 H         1.569791        -0.279270        -2.306597
 H         2.192605        -1.625897        -1.198895
