19
Iteration:  2131charge 0 multiplicity 1
 C         0.062753        -0.451789         0.365389
 C         1.505140        -0.178553         0.052936
 C         2.678766        -0.406716         0.966155
 C         3.074176         0.908269         0.150987
 C         4.605624         1.168980         0.256370
 O         4.768751         0.084339        -0.765236
 C         3.308122         0.391075        -1.248716
 C         2.158817        -0.653893        -1.342948
 O         1.601313         1.285852         0.057235
 H        -0.301284        -0.111845         1.281717
 H        -0.505757         0.221542        -0.425075
 H        -0.059892        -1.450766         0.010329
 H         2.611960        -0.251564         2.028440
 H         3.530050        -0.966414         0.765631
 H         5.010725         2.154441        -0.104001
 H         5.105126         0.736891         1.062846
 H         3.322770         1.114366        -2.044915
 H         1.492557        -0.467667        -2.238688
 H         2.470977        -1.751483        -1.235334
