19
Iteration:  1293charge 0 multiplicity 1
 C         0.092633        -0.577854         0.273210
 C         1.432538        -0.129784        -0.044547
 C         2.482322        -0.425890         1.043267
 C         3.117683         0.798960         0.256281
 C         4.566302         1.155825         0.192071
 O         4.915640         0.252026        -0.910541
 C         3.355152         0.252460        -1.161526
 C         2.105449        -0.666291        -1.361390
 O         1.715388         1.422764         0.157577
 H        -0.136380        -0.018035         1.254578
 H        -0.833753        -0.362386        -0.368277
 H         0.061037        -1.585749         0.475613
 H         2.304871        -0.080522         2.062992
 H         3.097364        -1.275895         0.983236
 H         4.825719         2.262909        -0.269130
 H         5.149390         0.928747         1.091438
 H         3.191203         1.102504        -1.899029
 H         1.615456        -0.377775        -2.287908
 H         2.135516        -1.792966        -1.195394
