19
Iteration:  4451
 C         0.051848        -0.469959         0.279619
 C         1.474696        -0.124517        -0.046687
 C         2.578238        -0.344767         0.962491
 C         3.146749         0.807658         0.190226
 C         4.596594         1.229237         0.253869
 O         4.760201         0.176589        -0.811079
 C         3.299930         0.270542        -1.258424
 C         2.156071        -0.711457        -1.289627
 O         1.739060         1.311098         0.115334
 H        -0.228390         0.251754         1.158415
 H        -0.758015        -0.267445        -0.442583
 H        -0.137020        -1.481367         0.607093
 H         2.322856         0.066576         1.962954
 H         3.039352        -1.318998         1.007078
 H         4.872635         2.260606         0.109647
 H         5.250774         0.849046         0.995538
 H         3.170448         1.029004        -2.074802
 H         1.569143        -0.880266        -2.153038
 H         2.588433        -1.708957        -0.968556
