19
Iteration:   877
 C         0.132556        -0.578134         0.231707
 C         1.462960        -0.138562         0.054818
 C         2.681231        -0.339510         0.948420
 C         3.068981         0.982540         0.206241
 C         4.582118         1.204350         0.148758
 O         4.735724         0.052818        -0.766650
 C         3.349333         0.293912        -1.226260
 C         2.145088        -0.624333        -1.335900
 O         1.626826         1.306299         0.218092
 H        -0.413094        -0.193650         1.213926
 H        -0.405128        -0.099867        -0.541002
 H         0.087157        -1.579569         0.013609
 H         2.547169        -0.155362         1.993344
 H         3.278871        -1.213676         0.686550
 H         4.850406         2.233755        -0.265394
 H         5.056395         1.072521         1.052771
 H         3.611077         1.073824        -1.951264
 H         1.515225        -0.331392        -2.143495
 H         2.324392        -1.676048        -1.434776
