19
Iteration:   285
 C        -0.019981        -0.522194         0.253741
 C         1.455581        -0.208513         0.101788
 C         2.695655        -0.404671         1.041935
 C         3.161757         0.797688         0.145925
 C         4.625108         1.214753         0.162476
 O         4.682581         0.160493        -0.812465
 C         3.312595         0.367737        -1.284981
 C         2.224673        -0.627130        -1.324846
 O         1.696193         1.317354         0.187858
 H        -0.458404         0.086964         1.018501
 H        -0.647890        -0.183537        -0.644990
 H        -0.324682        -1.633385         0.449800
 H         2.536937         0.009938         2.041183
 H         3.338287        -1.263331         1.010597
 H         4.894466         2.272294        -0.173160
 H         5.086642         0.905069         1.028921
 H         3.190620         1.159636        -2.152253
 H         1.585325        -0.370653        -2.103979
 H         2.598988        -1.561323        -1.456526
