19
Iteration:  3388
 C         0.016186        -0.458939         0.222464
 C         1.448804        -0.149735         0.048971
 C         2.663502        -0.360800         1.001154
 C         3.117041         0.808351         0.172878
 C         4.641572         1.296065         0.185889
 O         4.673842         0.104540        -0.800433
 C         3.284066         0.319502        -1.159728
 C         2.242918        -0.744702        -1.282329
 O         1.728063         1.352721         0.090739
 H        -0.288059         0.145540         1.058993
 H        -0.538209        -0.129650        -0.717335
 H        -0.102492        -1.596859         0.414662
 H         2.330237        -0.281340         2.006031
 H         3.194917        -1.380955         1.076773
 H         4.922411         2.189998        -0.407530
 H         5.019693         1.163250         1.154047
 H         3.159347         1.016164        -1.933219
 H         1.658356        -0.671054        -2.173658
 H         2.569012        -1.803794        -1.221351
