19
Iteration:  1752charge 0 multiplicity 1
 C         0.064137        -0.485225         0.277571
 C         1.428875        -0.146768         0.018391
 C         2.651195        -0.402401         0.995501
 C         3.143881         0.817812         0.164232
 C         4.626568         1.228466         0.227880
 O         4.761567         0.097572        -0.734919
 C         3.331918         0.436180        -1.297630
 C         2.136313        -0.641711        -1.304290
 O         1.645830         1.265300         0.074802
 H        -0.090824        -0.407439         1.341318
 H        -0.784075         0.172403        -0.260797
 H        -0.126391        -1.501731         0.050975
 H         2.371797        -0.078028         2.026543
 H         3.353382        -1.253150         0.961058
 H         5.057467         2.081894        -0.207299
 H         5.176910         1.029575         1.252146
 H         3.217077         1.120309        -2.089092
 H         1.483303        -0.569656        -2.042480
 H         2.551208        -1.595818        -1.279219
