19
Iteration:  4815charge 0 multiplicity 1
 C        -0.090224        -0.538815         0.303894
 C         1.423180        -0.150153         0.070471
 C         2.660216        -0.271599         0.998652
 C         3.113014         0.853738         0.170301
 C         4.597764         1.149771         0.279626
 O         4.805778         0.187487        -0.873869
 C         3.335557         0.324282        -1.252172
 C         2.177370        -0.673818        -1.327372
 O         1.731961         1.258819         0.066223
 H        -0.108358         0.206083         0.957046
 H        -0.692518        -0.294118        -0.588066
 H        -0.340527        -1.489667         0.804425
 H         2.477484        -0.021882         2.003142
 H         3.270302        -1.223170         1.122808
 H         5.049017         2.165252         0.192219
 H         4.949047         0.579137         1.195525
 H         3.384851         1.127428        -2.021251
 H         1.465979        -0.400807        -2.177461
 H         2.663806        -1.628403        -1.320826
