19
Iteration:  4200charge 0 multiplicity 1
 C         0.025974        -0.673275         0.408899
 C         1.367624        -0.125114        -0.057201
 C         2.551973        -0.325563         1.001063
 C         3.123000         0.852319         0.128589
 C         4.573396         1.166564         0.175950
 O         4.797821         0.163628        -0.768549
 C         3.437316         0.318685        -1.195141
 C         2.091063        -0.653571        -1.256687
 O         1.807846         1.431923         0.011618
 H        -0.234560        -0.429516         1.448083
 H        -0.756178        -0.260444        -0.270072
 H         0.012033        -1.758538         0.153883
 H         2.382821         0.022448         1.987539
 H         2.853859        -1.404741         1.105585
 H         4.867805         2.234401        -0.133028
 H         5.109817         0.957521         1.127270
 H         3.280627         1.018409        -2.020803
 H         1.632465        -0.450858        -2.269025
 H         2.446621        -1.688704        -1.314939
