19
Iteration:  1695charge 0 multiplicity 1
 C         0.067108        -0.554413         0.250580
 C         1.390859        -0.039841         0.090742
 C         2.465847        -0.453601         1.042219
 C         3.164282         0.711394         0.223342
 C         4.625944         1.271223         0.129077
 O         4.817167         0.233983        -0.834795
 C         3.335078         0.256360        -1.198302
 C         2.118325        -0.624431        -1.317014
 O         1.786609         1.321111         0.116355
 H        -0.552823        -0.104307         1.072754
 H        -0.426113        -0.236803        -0.822059
 H         0.178523        -1.695406         0.250285
 H         2.316803        -0.036659         2.039081
 H         2.901329        -1.473505         1.101084
 H         4.704204         2.238153        -0.407629
 H         5.297312         1.056456         1.069634
 H         3.307873         1.197768        -1.818430
 H         1.655705        -0.429929        -2.220158
 H         2.277107        -1.712782        -1.241834
