19
Iteration:  2225
 C        -0.045033        -0.443328         0.241889
 C         1.497791        -0.254215         0.067092
 C         2.722192        -0.323141         1.006741
 C         3.057438         0.825833         0.141490
 C         4.675049         1.157803         0.151938
 O         4.737004         0.101326        -0.826908
 C         3.307778         0.342817        -1.202670
 C         2.250454        -0.627709        -1.320459
 O         1.631120         1.312045         0.194673
 H        -0.281272         0.162022         1.054147
 H        -0.438963         0.025007        -0.587375
 H        -0.346633        -1.528296         0.224898
 H         2.314269         0.137548         1.941505
 H         3.390160        -1.216796         1.146124
 H         4.752162         2.196258        -0.023181
 H         5.157663         0.816980         1.064103
 H         3.145178         1.135100        -2.025540
 H         1.740074        -0.362126        -2.205415
 H         2.414184        -1.640185        -1.330706
