19
Iteration:   636charge 0 multiplicity 1
 C        -0.072039        -0.502655         0.190084
 C         1.406924        -0.192105         0.054577
 C         2.620810        -0.489081         0.977126
 C         3.122202         0.745123         0.272806
 C         4.564415         1.288361         0.122545
 O         4.868888         0.238034        -0.887045
 C         3.373261         0.311072        -1.167759
 C         2.077058        -0.624174        -1.255928
 O         1.822112         1.325932         0.211695
 H        -0.557002         0.073951         1.029039
 H        -0.643736        -0.343233        -0.711977
 H        -0.152054        -1.549743         0.415281
 H         2.437127        -0.380387         2.064555
 H         3.168528        -1.412894         0.758413
 H         4.617463         2.195454        -0.501352
 H         5.227811         1.342847         0.932235
 H         3.214665         1.088441        -1.805700
 H         1.595659        -0.308506        -2.202876
 H         2.258390        -1.684508        -1.314829
