19
Iteration:  2364charge 0 multiplicity 1
 C        -0.013944        -0.535308         0.300900
 C         1.369710        -0.084685         0.055355
 C         2.505070        -0.394017         1.002834
 C         3.169214         0.742179         0.208107
 C         4.642758         1.197584         0.179569
 O         4.833726         0.222239        -0.935857
 C         3.364816         0.294879        -1.173981
 C         2.160081        -0.644949        -1.253929
 O         1.772222         1.346569         0.102050
 H        -0.596103         0.061634         1.118482
 H        -0.787926        -0.610188        -0.496320
 H        -0.007869        -1.634606         0.503186
 H         2.266492        -0.011470         1.982461
 H         2.927456        -1.372106         1.025237
 H         4.749025         2.226150        -0.187163
 H         5.184097         1.053208         1.166725
 H         3.393257         1.061327        -1.885655
 H         1.712803        -0.519442        -2.320500
 H         2.423595        -1.776362        -1.222749
