19
Iteration:  2291
 C         0.016412        -0.578656         0.325675
 C         1.415084        -0.140192         0.042969
 C         2.564530        -0.343828         0.973727
 C         3.217506         0.750890         0.157750
 C         4.635581         1.279414         0.149888
 O         4.909260         0.101707        -0.721195
 C         3.254858         0.291692        -1.254729
 C         2.063656        -0.601001        -1.333510
 O         1.706532         1.361962         0.108726
 H        -0.158432        -0.406564         1.329153
 H        -0.691227        -0.031324        -0.236450
 H        -0.152462        -1.699357         0.054474
 H         2.260114         0.136414         1.943388
 H         2.921659        -1.397199         1.133877
 H         4.833985         2.227712        -0.322116
 H         5.350408         1.078824         1.004664
 H         3.418480         1.172521        -1.988584
 H         1.487464        -0.303417        -2.187523
 H         2.196988        -1.615261        -1.497133
