19
Iteration:  4398charge 0 multiplicity 1
 C         0.066284        -0.579090         0.296179
 C         1.436592        -0.086219         0.038132
 C         2.612047        -0.391378         1.005246
 C         3.058705         0.878120         0.182822
 C         4.643148         1.215122         0.143504
 O         4.859770         0.113473        -0.705500
 C         3.367987         0.298190        -1.207934
 C         2.026179        -0.646714        -1.319243
 O         1.718601         1.352636         0.051206
 H        -0.485858        -0.163432         1.252040
 H        -0.656289        -0.289122        -0.480354
 H         0.135367        -1.657483         0.350207
 H         2.197108         0.115226         1.904828
 H         3.046131        -1.367333         1.045002
 H         4.847889         2.048249        -0.499842
 H         5.384366         1.140637         0.961715
 H         3.321580         1.096655        -1.955904
 H         1.538774        -0.396841        -2.179077
 H         2.215778        -1.756992        -1.417706
