19
Iteration:  1515charge 0 multiplicity 1
 C         0.047640        -0.504962         0.231538
 C         1.450299        -0.142885         0.004757
 C         2.542897        -0.456058         1.079765
 C         3.129666         0.821930         0.231532
 C         4.605450         1.219864         0.191306
 O         4.790096         0.231995        -0.939907
 C         3.316289         0.310554        -1.133084
 C         2.139746        -0.647472        -1.304695
 O         1.767077         1.306786         0.133506
 H        -0.318623         0.105390         1.097004
 H        -0.566750        -0.320412        -0.733761
 H        -0.055185        -1.683709         0.446020
 H         2.119892        -0.230262         2.048482
 H         3.047971        -1.425165         1.054434
 H         5.049171         2.225442        -0.110107
 H         5.099684         0.962699         1.074731
 H         3.269359         1.175276        -1.909099
 H         1.598242        -0.448071        -2.291528
 H         2.386776        -1.707746        -1.216146
