19
Iteration:  2198
 C        -0.007229        -0.535246         0.175525
 C         1.456739        -0.119597         0.037464
 C         2.606523        -0.420578         1.046247
 C         3.113831         0.786662         0.220982
 C         4.655417         1.314035         0.137087
 O         4.790008         0.092052        -0.873972
 C         3.328397         0.310163        -1.178741
 C         2.063992        -0.589108        -1.253657
 O         1.806353         1.347870         0.159521
 H        -0.535933         0.003630         1.030837
 H        -0.579298        -0.489940        -0.825220
 H         0.180169        -1.555594         0.386887
 H         2.159523        -0.231128         2.000825
 H         3.071362        -1.383775         1.019206
 H         4.738722         2.397886        -0.116560
 H         5.242092         0.936690         1.019395
 H         3.155845         1.131673        -1.874358
 H         1.440373        -0.584482        -2.217210
 H         2.306260        -1.734431        -1.038538
