19
Iteration:  1394
 C         0.016270        -0.625767         0.326495
 C         1.419507        -0.142708         0.013021
 C         2.563086        -0.349431         0.960398
 C         3.115095         0.794498         0.198240
 C         4.615507         1.217974         0.205464
 O         4.860028         0.128465        -0.799669
 C         3.345308         0.289471        -1.147248
 C         2.089041        -0.629981        -1.351084
 O         1.774492         1.408760         0.080870
 H        -0.122469        -0.560528         1.358951
 H        -0.873272         0.027822        -0.081696
 H        -0.074592        -1.668465        -0.207881
 H         2.427933        -0.197174         1.986377
 H         2.977588        -1.324735         0.944192
 H         4.647674         2.241359        -0.432494
 H         5.126222         1.287969         1.083581
 H         3.223634         1.322762        -1.765541
 H         1.579385        -0.205064        -2.216181
 H         2.303029        -1.686772        -1.457868
