19
Iteration:   941
 C         0.066137        -0.498248         0.258482
 C         1.479669        -0.138915        -0.026166
 C         2.648870        -0.365089         0.964335
 C         3.108180         0.845428         0.237616
 C         4.601685         1.154238         0.257187
 O         4.788237         0.232465        -0.866738
 C         3.333206         0.303127        -1.152473
 C         2.135809        -0.702166        -1.362318
 O         1.645309         1.282095         0.141299
 H        -0.174101         0.091205         1.273198
 H        -0.631335         0.021691        -0.378046
 H        -0.184784        -1.590940         0.284158
 H         2.210463        -0.046249         1.884335
 H         3.265327        -1.236981         1.112111
 H         4.868733         2.317027        -0.006937
 H         5.161268         0.688956         1.007125
 H         3.194252         1.057495        -2.007157
 H         1.727620        -0.533359        -2.355858
 H         2.468553        -1.700004        -1.155041
