19
Iteration:  3910charge 0 multiplicity 1
 C         0.018010        -0.558074         0.264930
 C         1.436756        -0.154526         0.016887
 C         2.519450        -0.366711         1.104150
 C         3.134798         0.741672         0.211168
 C         4.578176         1.316633         0.109369
 O         4.847997         0.104499        -0.850197
 C         3.335908         0.317786        -1.224389
 C         2.137104        -0.629115        -1.329118
 O         1.799330         1.336038         0.143242
 H        -0.455791        -0.072681         1.169399
 H        -0.577371        -0.248511        -0.629525
 H        -0.120982        -1.637468         0.221572
 H         2.014581        -0.043085         2.008194
 H         3.074981        -1.277330         1.184900
 H         4.437647         2.296474        -0.425768
 H         5.374802         1.322424         0.949361
 H         3.240971         1.287623        -1.631927
 H         1.633660        -0.537387        -2.237036
 H         2.432400        -1.671901        -0.962671
