19
Iteration:  2551
 C         0.039124        -0.490959         0.244706
 C         1.476935        -0.270074         0.018612
 C         2.518690        -0.379335         1.127825
 C         3.076267         0.825594         0.196398
 C         4.667135         1.273629         0.073181
 O         4.868377         0.129889        -0.821013
 C         3.343527         0.314455        -1.171657
 C         2.088894        -0.595255        -1.358483
 O         1.764497         1.322165         0.162162
 H        -0.427583         0.173184         0.975482
 H        -0.588984        -0.433975        -0.619388
 H        -0.131533        -1.610005         0.528936
 H         1.994075        -0.279856         2.016588
 H         3.081962        -1.239776         1.080061
 H         4.838231         2.165733        -0.427707
 H         5.245300         1.145805         1.039928
 H         3.167214         1.173270        -1.762697
 H         1.386238        -0.316769        -2.182351
 H         2.119186        -1.666045        -1.498822
