19
Iteration:  1754charge 0 multiplicity 1
 C         0.047962        -0.499778         0.288096
 C         1.450383        -0.150453        -0.003289
 C         2.642297        -0.398427         0.995665
 C         3.147753         0.794440         0.166508
 C         4.617871         1.223415         0.244644
 O         4.761559         0.103668        -0.739945
 C         3.326191         0.419350        -1.287761
 C         2.135009        -0.628545        -1.297358
 O         1.658164         1.282453         0.065589
 H        -0.068663        -0.428882         1.379226
 H        -0.720914         0.138992        -0.234940
 H        -0.128627        -1.536184         0.045078
 H         2.382953         0.005991         2.014406
 H         3.362164        -1.245269         0.956670
 H         5.017203         2.131108        -0.249122
 H         5.159925         1.020278         1.203379
 H         3.252120         1.185841        -2.121034
 H         1.397397        -0.469794        -2.134470
 H         2.544407        -1.620466        -1.176132
