19
Iteration:  2286charge 0 multiplicity 1
 C         0.036208        -0.601196         0.305584
 C         1.386861        -0.131639         0.028234
 C         2.550297        -0.325655         0.987468
 C         3.196716         0.763114         0.152131
 C         4.613243         1.274198         0.185258
 O         4.918714         0.104997        -0.756164
 C         3.270697         0.274505        -1.257751
 C         2.083566        -0.616975        -1.347136
 O         1.752524         1.378426         0.121714
 H        -0.177318        -0.550175         1.475647
 H        -0.825503         0.025544        -0.119598
 H        -0.234070        -1.619479         0.246112
 H         2.225332         0.035847         1.946278
 H         2.864170        -1.345294         1.128791
 H         4.826338         2.248769        -0.339262
 H         5.279718         1.205163         1.051880
 H         3.344158         1.059272        -1.937514
 H         1.601706        -0.153854        -2.293781
 H         2.040283        -1.795244        -1.480755
