19
Iteration:  4547
 C         0.005935        -0.579705         0.346844
 C         1.420090        -0.102127         0.054314
 C         2.578383        -0.286125         0.967120
 C         3.079238         0.861123         0.132958
 C         4.617952         1.201515         0.225264
 O         4.817727         0.111823        -0.791176
 C         3.369512         0.316549        -1.233834
 C         2.113673        -0.710616        -1.315850
 O         1.749646         1.365581         0.065739
 H        -0.252375        -0.284985         1.341111
 H        -0.644805        -0.003780        -0.274789
 H        -0.214872        -1.603007         0.120630
 H         2.305088        -0.217118         2.034436
 H         3.153558        -1.222578         0.846815
 H         4.977807         2.293333         0.089575
 H         5.121744         0.963543         1.159720
 H         3.429797         1.011121        -2.071284
 H         1.565502        -0.781594        -2.331155
 H         2.589686        -1.714584        -1.259025
