19
Iteration:   426charge 0 multiplicity 1
 C         0.012748        -0.567614         0.291135
 C         1.410263        -0.077029        -0.023776
 C         2.484152        -0.427043         1.002765
 C         3.203821         0.773571         0.275011
 C         4.668483         1.225616         0.158010
 O         4.815092         0.300544        -0.979833
 C         3.292511         0.233923        -1.062838
 C         2.145057        -0.669525        -1.322553
 O         1.777532         1.326031         0.157005
 H        -0.159661        -0.344074         1.247190
 H        -0.850051        -0.075925        -0.217880
 H        -0.065658        -1.736113         0.099794
 H         2.246294         0.019527         1.985263
 H         2.829313        -1.465655         1.065066
 H         4.773759         2.301779        -0.271454
 H         5.263833         1.005877         0.982531
 H         3.166662         1.066015        -1.759700
 H         1.795393        -0.447501        -2.346854
 H         2.246095        -1.764403        -1.261392
