19
Iteration:  3099
 C         0.001882        -0.490427         0.278022
 C         1.393569        -0.131082         0.055123
 C         2.619713        -0.315150         1.002350
 C         3.173269         0.869004         0.112198
 C         4.621623         1.179869         0.269945
 O         4.808008         0.172604        -0.830704
 C         3.364468         0.285333        -1.318932
 C         2.164456        -0.723798        -1.318985
 O         1.634096         1.285724         0.147544
 H        -0.434155         0.209581         1.109098
 H        -0.585418        -0.217575        -0.610830
 H        -0.216440        -1.472013         0.730466
 H         2.565267         0.184022         2.045451
 H         3.223397        -1.222351         0.994639
 H         5.090191         2.102873         0.088975
 H         5.114130         0.813485         1.275032
 H         3.314273         1.022346        -2.055671
 H         1.763775        -0.549164        -2.243782
 H         2.347122        -1.807949        -1.191404
