19
Iteration:  1861charge 0 multiplicity 1
 C        -0.038632        -0.482284         0.215235
 C         1.439215        -0.124447         0.037331
 C         2.629843        -0.415946         1.015312
 C         3.126070         0.813164         0.185340
 C         4.534025         1.265905         0.196082
 O         4.865386         0.133715        -0.854066
 C         3.304231         0.344468        -1.238109
 C         2.162398        -0.694953        -1.301449
 O         1.733026         1.311407         0.190780
 H        -0.383861         0.169165         1.008886
 H        -0.676657        -0.329186        -0.733143
 H        -0.023139        -1.464874         0.590767
 H         2.427927        -0.130306         2.052353
 H         3.056401        -1.394542         0.963093
 H         4.749300         2.207912        -0.217181
 H         5.202089         1.072951         1.134083
 H         3.306492         1.097120        -1.932211
 H         1.714830        -0.638185        -2.230088
 H         2.494345        -1.700373        -1.167788
