19
Iteration:  1445
 C        -0.022605        -0.555588         0.306395
 C         1.477433        -0.264407         0.039166
 C         2.763935        -0.353039         0.943185
 C         3.036502         0.920524         0.208133
 C         4.606326         1.188896         0.214981
 O         4.761706         0.080443        -0.773277
 C         3.266778         0.395209        -1.237414
 C         2.164290        -0.614450        -1.381527
 O         1.719224         1.367069         0.103040
 H        -0.308204        -0.128132         1.290010
 H        -0.585909         0.015014        -0.512682
 H        -0.227131        -1.546938         0.184297
 H         2.532720        -0.249114         2.052732
 H         3.491381        -1.202198         0.822678
 H         4.993156         2.126461        -0.047431
 H         4.997802         0.877254         1.316387
 H         3.326656         1.128000        -1.939015
 H         1.464147        -0.615355        -2.248552
 H         2.433179        -1.687123        -1.138862
