19
Iteration:  2735
 C        -0.004488        -0.554652         0.338370
 C         1.447042        -0.152502         0.021403
 C         2.505545        -0.322425         1.031726
 C         3.116813         0.742302         0.199467
 C         4.580051         1.185315         0.240249
 O         4.771737         0.150902        -0.887843
 C         3.382882         0.299413        -1.223967
 C         2.268247        -0.652041        -1.357654
 O         1.725887         1.399685         0.093340
 H        -0.369815         0.140677         1.097705
 H        -0.641324        -0.343369        -0.489549
 H         0.076735        -1.589915         0.626263
 H         2.189759         0.123628         1.974722
 H         3.186639        -1.245383         1.286206
 H         4.836815         2.106643        -0.298769
 H         5.318238         0.975521         1.111703
 H         3.169845         1.199658        -1.898364
 H         1.606009        -0.552931        -2.224232
 H         2.438996        -1.686430        -1.300544
