19
Iteration:  2968
 C        -0.100456        -0.554098         0.404704
 C         1.434430        -0.184439        -0.023556
 C         2.565665        -0.302515         0.984609
 C         3.119863         0.881361         0.168992
 C         4.661592         1.233263         0.166738
 O         4.812139         0.109401        -0.773817
 C         3.380776         0.302857        -1.173341
 C         2.216359        -0.675660        -1.417273
 O         1.713862         1.321172         0.057670
 H        -0.263201        -0.308992         1.453088
 H        -0.808356         0.137430        -0.063415
 H        -0.261415        -1.619085         0.189919
 H         2.385068        -0.021729         2.090808
 H         3.090389        -1.284513         1.157945
 H         4.820986         2.230155        -0.213913
 H         5.182769         1.073906         1.144825
 H         3.476062         1.141137        -1.856537
 H         1.504797        -0.411102        -2.149049
 H         2.447251        -1.755359        -1.459283
