19
Iteration:  3128charge 0 multiplicity 1
 C         0.061000        -0.574960         0.306140
 C         1.427268        -0.196250         0.043513
 C         2.563338        -0.331738         1.044145
 C         3.122754         0.863338         0.238363
 C         4.558303         1.157176         0.125975
 O         4.817602         0.078775        -0.790369
 C         3.374214         0.320430        -1.154436
 C         2.127153        -0.636436        -1.345700
 O         1.720619         1.416187        -0.001025
 H        -0.334809        -0.151949         1.215686
 H        -0.539843         0.037264        -0.386896
 H        -0.129909        -1.682249         0.488010
 H         2.415976        -0.145075         2.071954
 H         3.228439        -1.209476         1.068179
 H         4.731377         2.215197        -0.266205
 H         5.223863         1.072984         1.042494
 H         3.256102         1.246025        -1.846974
 H         1.662654        -0.308410        -2.333744
 H         2.393181        -1.732350        -1.316860
