19
Iteration:  4522
 C         0.031356        -0.519766         0.230686
 C         1.456946        -0.150893         0.044557
 C         2.692282        -0.345603         1.024550
 C         3.059554         0.888196         0.141207
 C         4.600852         1.181617         0.158900
 O         4.705189         0.066776        -0.782484
 C         3.329111         0.326858        -1.190312
 C         2.200639        -0.688403        -1.261586
 O         1.689156         1.362783         0.131603
 H        -0.190937        -0.254358         1.237590
 H        -0.614477         0.237532        -0.305334
 H        -0.262638        -1.566128        -0.143311
 H         2.466455         0.024806         2.013902
 H         3.377401        -1.285690         0.989130
 H         4.800987         2.151074        -0.325195
 H         5.235002         1.310089         1.124651
 H         3.415676         0.919715        -2.105444
 H         1.806038        -0.564408        -2.345258
 H         2.528278        -1.670268        -1.324790
