19
Iteration:  2901charge 0 multiplicity 1
 C        -0.022517        -0.480528         0.226322
 C         1.463614        -0.204364         0.028351
 C         2.621161        -0.289087         0.980790
 C         3.160037         0.856269         0.222932
 C         4.638988         1.234012         0.129797
 O         4.754064         0.054114        -0.796489
 C         3.294080         0.442220        -1.206927
 C         2.216893        -0.691762        -1.270672
 O         1.676005         1.291328         0.159281
 H        -0.564108         0.177888         0.869860
 H        -0.673924        -0.463885        -0.684404
 H        -0.284800        -1.547830         0.484565
 H         2.463681         0.031257         2.084249
 H         3.175007        -1.356836         0.984216
 H         4.907798         2.138512        -0.421752
 H         5.360147         0.980724         1.034838
 H         3.213830         1.227719        -2.005207
 H         1.781781        -0.926876        -2.251579
 H         2.597234        -1.705452        -1.050104
