19
Iteration:  1950
 C         0.048698        -0.581482         0.215808
 C         1.440124        -0.202467        -0.008797
 C         2.737730        -0.315122         0.923910
 C         3.096745         0.889342         0.216869
 C         4.595124         1.221285         0.175627
 O         4.747913         0.056518        -0.738925
 C         3.328312         0.371150        -1.203234
 C         2.101628        -0.650972        -1.306532
 O         1.694352         1.379432         0.156528
 H        -0.361835        -0.256009         1.309290
 H        -0.584753         0.155363        -0.356243
 H        -0.152577        -1.691790        -0.066316
 H         2.521245        -0.090545         1.996203
 H         3.431617        -1.213592         1.073599
 H         4.775048         2.175588        -0.387533
 H         5.207641         0.871844         1.107506
 H         3.295164         0.995768        -2.045164
 H         1.555798        -0.561861        -2.224412
 H         2.380455        -1.657240        -1.077119
