19
Iteration:   388charge 0 multiplicity 1
 C        -0.045835        -0.493286         0.251386
 C         1.461962        -0.209180         0.065476
 C         2.778133        -0.398757         0.937530
 C         3.127457         0.828214         0.155150
 C         4.575304         1.283489         0.119289
 O         4.757598         0.098832        -0.751699
 C         3.267547         0.355378        -1.199056
 C         2.150216        -0.569554        -1.291269
 O         1.737316         1.246001         0.168719
 H        -0.483847        -0.299788         1.340739
 H        -0.499989         0.160545        -0.523253
 H        -0.344466        -1.468402         0.022659
 H         2.630228        -0.172074         2.008222
 H         3.336103        -1.346241         0.810740
 H         4.782084         2.199987        -0.336095
 H         5.142218         1.257099         1.142593
 H         3.177237         1.127524        -1.951137
 H         1.495783        -0.352584        -2.190478
 H         2.396843        -1.701611        -1.281086
