19
Iteration:  2971charge 0 multiplicity 1
 C        -0.068915        -0.550623         0.403448
 C         1.412791        -0.188522         0.003804
 C         2.577671        -0.306897         0.961185
 C         3.100302         0.888108         0.165542
 C         4.646621         1.227714         0.197994
 O         4.800024         0.096548        -0.793810
 C         3.402001         0.294986        -1.166425
 C         2.236493        -0.671334        -1.399178
 O         1.707927         1.329839         0.068096
 H        -0.187395        -0.309610         1.481979
 H        -0.797676         0.067158        -0.107914
 H        -0.412958        -1.524542         0.156775
 H         2.259216         0.034806         1.999549
 H         3.084805        -1.241696         1.078975
 H         4.845446         2.275070        -0.312970
 H         5.168231         1.074283         1.078502
 H         3.534090         1.170610        -1.904686
 H         1.505000        -0.463385        -2.185956
 H         2.519679        -1.746963        -1.499330
