19
Iteration:  4305
 C        -0.049539        -0.537924         0.321687
 C         1.397052        -0.132425         0.044668
 C         2.541117        -0.385798         1.065959
 C         3.083669         0.831047         0.145037
 C         4.593036         1.208555         0.208896
 O         4.847267         0.212817        -0.860022
 C         3.360346         0.293452        -1.215997
 C         2.259767        -0.770388        -1.343324
 O         1.818369         1.388922         0.059939
 H        -0.461792        -0.078422         1.207944
 H        -0.820505        -0.094195        -0.392230
 H        -0.277188        -1.661599         0.344076
 H         2.385170         0.194687         1.991650
 H         3.007450        -1.402648         1.118483
 H         4.675358         2.244608        -0.192622
 H         5.137603         0.926639         1.107894
 H         3.185244         1.257456        -1.830361
 H         1.330074        -0.798303        -2.061387
 H         2.302029        -1.808647        -1.049639
