19
Iteration:  1884charge 0 multiplicity 1
 C        -0.045033        -0.538621         0.320374
 C         1.431060        -0.154086         0.010974
 C         2.492265        -0.406352         1.007508
 C         3.131294         0.751074         0.246649
 C         4.618856         1.254531         0.159034
 O         4.857910         0.246760        -0.861043
 C         3.380269         0.267358        -1.129116
 C         2.111950        -0.670772        -1.309798
 O         1.799780         1.350052         0.043173
 H        -0.380237        -0.130787         1.334992
 H        -0.633216        -0.145915        -0.561008
 H         0.102254        -1.621859         0.362564
 H         2.122764        -0.249035         2.038920
 H         2.912514        -1.424463         0.936656
 H         4.613961         2.302458        -0.171549
 H         5.459000         1.086879         0.941857
 H         3.258474         1.125109        -1.708423
 H         1.745340        -0.313574        -2.201995
 H         2.160722        -1.730641        -1.383638
