19
Iteration:  3825
 C         0.029794        -0.583635         0.378156
 C         1.439311        -0.149222        -0.045562
 C         2.582184        -0.324076         0.937137
 C         3.089440         0.897779         0.190686
 C         4.637209         1.176236         0.228016
 O         4.864915         0.090183        -0.834122
 C         3.351113         0.297360        -1.106082
 C         2.144787        -0.659216        -1.317039
 O         1.668893         1.396222         0.012485
 H        -0.126494        -0.271960         1.455147
 H        -0.809031        -0.089496         0.015205
 H         0.056601        -1.649738         0.303898
 H         2.115396        -0.146583         2.013153
 H         3.051698        -1.258280         0.801741
 H         4.633074         2.188108        -0.194065
 H         5.315227         1.154675         1.029453
 H         3.128325         1.164570        -1.803794
 H         1.647318        -0.469095        -2.208352
 H         2.490616        -1.783882        -1.283857
