19
Iteration:  2092
 C         0.047792        -0.579698         0.288723
 C         1.386545        -0.090841         0.030037
 C         2.546388        -0.379255         1.074464
 C         3.126361         0.767406         0.249241
 C         4.606410         1.251757         0.127870
 O         4.831704         0.114418        -0.778194
 C         3.316973         0.293047        -1.279609
 C         2.094462        -0.603315        -1.388569
 O         1.821928         1.378788         0.140182
 H        -0.438530        -0.711332         1.342621
 H        -0.689246        -0.123510        -0.322859
 H         0.027923        -1.647758        -0.049876
 H         2.081346         0.014802         2.004701
 H         3.048298        -1.418395         1.208462
 H         4.756564         2.160123        -0.459280
 H         5.200185         1.413181         1.144134
 H         3.516785         1.072906        -2.109562
 H         1.544033        -0.411967        -2.306669
 H         2.327747        -1.663863        -1.293703
