19
Iteration:  1197
 C         0.013765        -0.608585         0.320982
 C         1.372188        -0.123587         0.013031
 C         2.518276        -0.401435         1.001231
 C         3.106713         0.768356         0.209412
 C         4.643304         1.238379         0.192307
 O         4.925834         0.190472        -0.865485
 C         3.382104         0.338949        -1.157228
 C         2.070560        -0.614737        -1.328762
 O         1.757728         1.333938         0.101548
 H        -0.405652        -0.344416         1.302947
 H        -0.646845        -0.053988        -0.496341
 H        -0.121084        -1.796606         0.140469
 H         2.225121         0.026118         1.977126
 H         2.949039        -1.403079         1.048951
 H         4.645714         2.220380        -0.252161
 H         5.176469         1.150647         1.097310
 H         3.471318         1.149301        -1.981126
 H         1.591236        -0.355536        -2.236990
 H         2.229452        -1.668002        -1.216667
