19
Iteration:  2784
 C         0.008933        -0.522533         0.249857
 C         1.472649        -0.154221         0.113057
 C         2.667458        -0.290819         1.060299
 C         3.123633         0.855392         0.169531
 C         4.574664         1.239074         0.127616
 O         4.790421         0.075015        -0.771623
 C         3.364628         0.292938        -1.220477
 C         2.173905        -0.639982        -1.338906
 O         1.652753         1.301563         0.131662
 H        -0.422774        -0.150517         1.220228
 H        -0.478495         0.093081        -0.573398
 H         0.063718        -1.567608        -0.096070
 H         2.555120         0.092268         2.103892
 H         2.915163        -1.295515         1.074307
 H         4.781270         2.235519        -0.360708
 H         5.083975         1.013711         1.052997
 H         3.304260         0.936614        -2.154604
 H         1.552922        -0.481796        -2.246205
 H         2.251248        -1.779150        -1.532454
