19
Iteration:  1246charge 0 multiplicity 1
 C         0.056117        -0.509246         0.258021
 C         1.500970        -0.224838         0.003482
 C         2.693073        -0.284559         0.951035
 C         3.076335         0.922180         0.143336
 C         4.595109         1.216023         0.143736
 O         4.802696         0.031617        -0.727578
 C         3.286245         0.366809        -1.228998
 C         2.174954        -0.593489        -1.348746
 O         1.599523         1.274222         0.222166
 H        -0.230172        -0.298310         1.375274
 H        -0.605478         0.010078        -0.337400
 H        -0.132948        -1.559853         0.069906
 H         2.277430        -0.121764         1.964368
 H         3.329162        -1.242987         0.823080
 H         5.035004         2.136561        -0.313842
 H         5.090767         0.870325         1.176928
 H         3.455885         1.043310        -1.974713
 H         1.489971        -0.303785        -2.226749
 H         2.583442        -1.660972        -1.355323
