19
Iteration:  4318charge 0 multiplicity 1
 C        -0.044594        -0.483016         0.326458
 C         1.436423        -0.223907         0.020948
 C         2.589007        -0.250921         1.067413
 C         3.125780         0.771208         0.197522
 C         4.570273         1.170124         0.210716
 O         4.794794         0.210083        -0.858210
 C         3.337991         0.282058        -1.206112
 C         2.185265        -0.716770        -1.301917
 O         1.746109         1.341755         0.034927
 H        -0.196560        -0.194459         1.380624
 H        -0.620073         0.039982        -0.496348
 H        -0.221387        -1.602594         0.264481
 H         2.265928        -0.000084         2.034760
 H         3.241539        -1.150303         1.149721
 H         4.912656         2.164087        -0.098012
 H         5.076711         0.940258         1.100367
 H         3.257617         1.034976        -2.078149
 H         1.872776        -0.514419        -2.373072
 H         2.679022        -1.649331        -1.322104
