19
Iteration:    41
 C        -0.043299        -0.647018         0.222503
 C         1.386714        -0.154507         0.049706
 C         2.570499        -0.363837         1.028356
 C         3.129013         0.813819         0.213912
 C         4.565822         1.201234         0.082546
 O         4.854285         0.110922        -0.862155
 C         3.354984         0.367915        -1.233610
 C         2.146678        -0.526572        -1.201063
 O         1.804706         1.351841         0.138865
 H        -0.334335        -0.729485         1.395719
 H        -0.752112         0.015616        -0.213792
 H        -0.114456        -1.645469        -0.150809
 H         2.229540        -0.125706         2.067876
 H         3.112650        -1.373589         1.208971
 H         4.671727         2.151341        -0.443029
 H         5.302520         1.252200         1.009876
 H         3.311528         1.275969        -1.893562
 H         1.548103        -0.500547        -2.077692
 H         2.487895        -1.533437        -1.109210
