19
Iteration:    70charge 0 multiplicity 1
 C         0.077838        -0.461664         0.244276
 C         1.457463        -0.206125         0.002267
 C         2.774718        -0.311260         1.037982
 C         3.057119         0.922598         0.186095
 C         4.635267         1.153141         0.202147
 O         4.743919         0.202432        -0.842142
 C         3.275251         0.269442        -1.180695
 C         2.177514        -0.701624        -1.358716
 O         1.600254         1.270105         0.165399
 H        -0.014832        -0.230376         1.273909
 H        -0.540715         0.325419        -0.451985
 H        -0.266833        -1.513139         0.025504
 H         2.412700        -0.126392         2.052098
 H         3.457665        -1.129590         0.975797
 H         5.223119         2.053936        -0.061403
 H         4.991274         0.784317         1.123907
 H         3.142191         1.140896        -1.945997
 H         1.545179        -0.496866        -2.311565
 H         2.402358        -1.860368        -1.279281
