19
Iteration:  3800charge 0 multiplicity 1
 C         0.002352        -0.564310         0.295622
 C         1.463398        -0.101874         0.074032
 C         2.542084        -0.385566         1.062639
 C         3.141839         0.857599         0.125663
 C         4.579332         1.253209         0.126813
 O         4.778627         0.160188        -0.789762
 C         3.426256         0.266491        -1.231169
 C         2.103960        -0.682886        -1.354714
 O         1.779957         1.342461         0.139817
 H        -0.488742        -0.121820         1.168426
 H        -0.749703        -0.155165        -0.404862
 H         0.098539        -1.648094         0.326386
 H         2.196320        -0.005013         1.977987
 H         2.836590        -1.465485         1.016876
 H         4.700194         2.265443        -0.275616
 H         5.186333         1.195614         1.140453
 H         3.401851         0.974157        -2.064100
 H         1.533782        -0.602945        -2.320780
 H         2.568455        -1.706533        -1.178401
