19
Iteration:  1176
 C        -0.025698        -0.457741         0.262099
 C         1.473171        -0.186695        -0.027480
 C         2.596089        -0.357368         1.047463
 C         3.150891         0.795710         0.246163
 C         4.672254         1.176976         0.219353
 O         4.738445         0.247844        -0.885570
 C         3.317347         0.274827        -1.189790
 C         2.238088        -0.693199        -1.370443
 O         1.657459         1.297881         0.147804
 H        -0.195658         0.042948         1.168572
 H        -0.787324        -0.125101        -0.547149
 H         0.076063        -1.647964         0.425125
 H         2.189116        -0.072249         2.050291
 H         3.332680        -1.212429         1.011487
 H         4.874461         2.159285        -0.079658
 H         5.121504         0.897461         1.189176
 H         3.217053         1.157284        -1.874199
 H         1.645226        -0.342287        -2.198613
 H         2.451392        -1.736283        -1.418976
