19
Iteration:  4488
 C        -0.056249        -0.558976         0.174059
 C         1.378942        -0.140144         0.057293
 C         2.629743        -0.326527         1.114473
 C         3.137222         0.786225         0.223709
 C         4.635669         1.309041         0.096912
 O         4.831064         0.136850        -0.824208
 C         3.341927         0.245314        -1.149215
 C         2.107399        -0.636793        -1.285563
 O         1.774261         1.305081         0.099526
 H        -0.238128        -0.175529         1.207465
 H        -0.562527         0.111782        -0.558003
 H        -0.238390        -1.690171         0.130873
 H         2.156895         0.015107         2.083708
 H         3.071960        -1.355850         1.205412
 H         4.568866         2.206466        -0.502772
 H         5.453942         1.107291         0.908604
 H         3.454075         0.995310        -1.933200
 H         1.539039        -0.247341        -2.175795
 H         2.343694        -1.695858        -1.375826
