19
Iteration:  3521charge 0 multiplicity 1
 C         0.033747        -0.560568         0.279725
 C         1.495655        -0.179326         0.065763
 C         2.605525        -0.359324         1.071567
 C         3.139923         0.803654         0.179461
 C         4.549958         1.351108         0.152147
 O         4.792441         0.094674        -0.764106
 C         3.408968         0.208000        -1.167214
 C         2.075922        -0.596881        -1.351687
 O         1.746899         1.333337         0.000380
 H        -0.548926        -0.359556         1.227975
 H        -0.591307         0.032952        -0.398763
 H        -0.036397        -1.656224         0.118559
 H         2.426572         0.152123         2.104481
 H         3.182847        -1.266301         1.153083
 H         4.782905         2.433098        -0.119801
 H         5.075795         1.136106         1.033898
 H         3.425495         0.902274        -1.961161
 H         1.472136        -0.058357        -2.084896
 H         1.798491        -1.687177        -1.440439
