19
Iteration:  4360
 C        -0.062096        -0.571362         0.289821
 C         1.445310        -0.185086         0.043225
 C         2.672895        -0.327777         0.970642
 C         3.122358         0.941440         0.164270
 C         4.585390         1.257859         0.135091
 O         4.752252         0.022065        -0.732815
 C         3.368961         0.307444        -1.179058
 C         2.192414        -0.654095        -1.335609
 O         1.721151         1.373185         0.091842
 H        -0.408237        -0.446782         1.306397
 H        -0.780144        -0.090768        -0.463385
 H        -0.029021        -1.663892        -0.038665
 H         2.513580         0.114378         1.958079
 H         3.252088        -1.290959         1.147009
 H         4.738862         2.331371        -0.206968
 H         5.282693         1.146743         0.984448
 H         3.557228         1.039065        -2.032711
 H         1.359724        -0.515110        -2.166816
 H         2.362377        -1.687662        -1.118243
