19
Iteration:    94charge 0 multiplicity 1
 C         0.014530        -0.470595         0.348064
 C         1.426754        -0.223624         0.070264
 C         2.621228        -0.422820         0.953342
 C         3.106154         0.809932         0.136884
 C         4.567629         1.221385         0.283624
 O         4.759342         0.195897        -0.863948
 C         3.368319         0.370565        -1.256663
 C         2.215791        -0.693740        -1.335539
 O         1.707575         1.319829         0.109566
 H        -0.184583         0.103765         1.353789
 H        -0.592930        -0.033868        -0.511560
 H        -0.241416        -1.523129         0.481834
 H         2.464078        -0.061293         1.987301
 H         3.115030        -1.432917         0.883751
 H         4.790193         2.224043        -0.055133
 H         5.197040         0.942891         1.173471
 H         3.244936         1.289739        -1.988004
 H         1.573873        -0.634571        -2.234420
 H         2.643401        -1.737675        -1.251496
