19
Iteration:  1211charge 0 multiplicity 1
 C        -0.027878        -0.597316         0.285827
 C         1.426718        -0.172440         0.064061
 C         2.568042        -0.396729         0.977532
 C         3.152912         0.815585         0.188937
 C         4.524793         1.230216         0.147085
 O         4.894595         0.132955        -0.760943
 C         3.291521         0.322427        -1.210846
 C         2.091471        -0.541366        -1.297838
 O         1.824780         1.379084         0.077196
 H        -0.361850        -0.605567         1.269013
 H        -0.765870        -0.187703        -0.398160
 H         0.138910        -1.746874        -0.025286
 H         2.337956        -0.233653         2.059592
 H         3.214141        -1.361407         0.869969
 H         4.756831         2.117445        -0.334373
 H         5.126905         1.237289         1.159620
 H         3.233106         1.162507        -1.817059
 H         1.372821        -0.433473        -2.171926
 H         2.438656        -1.578539        -1.354263
