19
Iteration:  2532charge 0 multiplicity 1
 C        -0.008114        -0.510780         0.261462
 C         1.423469        -0.215785         0.029660
 C         2.671490        -0.335255         1.010562
 C         3.113618         0.801449         0.181949
 C         4.601958         1.186465         0.220224
 O         4.746127         0.132313        -0.846412
 C         3.345074         0.322303        -1.212634
 C         2.194163        -0.646233        -1.371785
 O         1.734642         1.369817         0.193544
 H        -0.327896         0.195288         0.954474
 H        -0.553359        -0.449239        -0.700784
 H        -0.297544        -1.572041         0.614821
 H         2.424358         0.222119         1.939695
 H         3.252869        -1.297160         1.088205
 H         4.644794         2.201266        -0.241599
 H         5.186982         1.002325         1.137070
 H         3.295357         0.926895        -2.113765
 H         1.499243        -0.274426        -2.179984
 H         2.411691        -1.734043        -1.310272
