19
Iteration:  3727charge 0 multiplicity 1
 C         0.007507        -0.551066         0.298715
 C         1.420340        -0.166182        -0.017981
 C         2.526670        -0.319075         1.055978
 C         3.054649         0.754544         0.250946
 C         4.542002         1.200571         0.195377
 O         4.846344         0.146348        -0.905960
 C         3.356106         0.327105        -1.220291
 C         2.203552        -0.672114        -1.305884
 O         1.815136         1.375443         0.108704
 H        -0.364759        -0.061767         1.276436
 H        -0.769777        -0.214436        -0.423711
 H         0.002877        -1.637066         0.334547
 H         2.172559         0.325600         1.986541
 H         3.155209        -1.221349         1.088120
 H         4.652855         2.190479        -0.287919
 H         5.212528         1.147020         1.020070
 H         3.215859         1.103934        -2.028156
 H         1.768953        -0.661594        -2.261185
 H         2.372327        -1.723738        -0.862483
