19
Iteration:  3421charge 0 multiplicity 1
 C        -0.004563        -0.533933         0.223681
 C         1.371991        -0.114991         0.071181
 C         2.550596        -0.333834         1.108688
 C         3.098071         0.769413         0.206805
 C         4.605044         1.263667         0.098933
 O         4.896362         0.132792        -0.908972
 C         3.409525         0.244190        -1.166218
 C         2.176368        -0.682331        -1.266676
 O         1.698720         1.372989         0.140338
 H        -0.448123         0.044526         1.027047
 H        -0.566937        -0.386039        -0.739645
 H        -0.178745        -1.647599         0.456780
 H         2.172334         0.017247         2.036605
 H         2.965780        -1.372191         1.007252
 H         4.745948         2.335996        -0.233284
 H         5.152761         1.100219         0.971249
 H         3.385587         0.987747        -1.897770
 H         1.790682        -0.266724        -2.156526
 H         2.306881        -1.769513        -1.316568
