19
Iteration:  2304
 C         0.020274        -0.515935         0.302188
 C         1.446333        -0.152653         0.048448
 C         2.647185        -0.379301         1.023301
 C         3.144220         0.845876         0.170934
 C         4.696583         1.189313         0.119453
 O         4.823788         0.075992        -0.732140
 C         3.350648         0.386193        -1.209493
 C         2.030555        -0.563591        -1.335607
 O         1.637269         1.273803         0.074713
 H        -0.463733        -0.381405         1.241308
 H        -0.578645         0.018560        -0.499431
 H        -0.059469        -1.653393         0.162728
 H         2.455303        -0.060208         2.089426
 H         3.345707        -1.275882         0.989020
 H         4.824553         2.159498        -0.407340
 H         5.183246         1.233807         1.061721
 H         3.475930         1.103083        -2.065288
 H         1.333572        -0.465021        -2.107590
 H         2.402762        -1.515391        -1.201786
