19
Iteration:  1658charge 0 multiplicity 1
 C         0.003386        -0.519498         0.251366
 C         1.454829        -0.275018         0.033416
 C         2.611936        -0.349927         1.028340
 C         3.075371         0.834259         0.172322
 C         4.669337         1.156569         0.205826
 O         4.750969         0.180786        -0.865051
 C         3.308110         0.393229        -1.179782
 C         2.176990        -0.671406        -1.342095
 O         1.746050         1.356001         0.142508
 H        -0.341627         0.158678         1.115841
 H        -0.519960        -0.286775        -0.639711
 H        -0.300553        -1.594927         0.602715
 H         2.127328        -0.055233         1.963797
 H         3.152617        -1.283563         1.094085
 H         5.115944         2.238482         0.140898
 H         5.128576         0.841908         1.083112
 H         3.144319         1.292631        -1.907504
 H         1.618576        -0.533620        -2.424097
 H         2.650221        -1.702084        -1.330564
