19
Iteration:  4689
 C        -0.015240        -0.541883         0.345004
 C         1.447398        -0.152110         0.007229
 C         2.547153        -0.313005         0.976042
 C         3.092076         0.868425         0.154299
 C         4.634101         1.155060         0.193297
 O         4.817549         0.158280        -0.814965
 C         3.375325         0.266192        -1.186252
 C         2.183084        -0.676134        -1.372390
 O         1.730424         1.369727         0.106286
 H         0.021886        -0.460679         1.503659
 H        -0.705439         0.168293        -0.075631
 H        -0.172146        -1.579304         0.015996
 H         2.005783        -0.004210         1.957735
 H         2.913518        -1.328466         1.130944
 H         4.725049         2.202690        -0.192519
 H         5.286452         1.115812         1.012212
 H         3.292332         1.142872        -1.812195
 H         1.647487        -0.736231        -2.333594
 H         2.381409        -1.762741        -1.106531
