19
Iteration:  1728
 C        -0.036262        -0.506902         0.240364
 C         1.423337        -0.258368         0.024371
 C         2.704813        -0.347924         0.946958
 C         3.074994         0.851623         0.190258
 C         4.594622         1.204575         0.161735
 O         4.735811         0.117932        -0.791306
 C         3.386109         0.315080        -1.172296
 C         2.240888        -0.637216        -1.336818
 O         1.662924         1.359087         0.209782
 H        -0.421442        -0.126074         1.188933
 H        -0.494576         0.197203        -0.627651
 H        -0.500276        -1.508394         0.083865
 H         2.581939         0.028900         1.958809
 H         3.502466        -1.116135         0.901779
 H         4.950772         2.104138        -0.305981
 H         5.283654         1.046995         1.094561
 H         3.221475         0.949681        -2.017214
 H         1.731390        -0.465827        -2.186174
 H         2.425060        -1.713751        -1.262590
