19
Iteration:  3502
 C         0.007255        -0.540746         0.326364
 C         1.455979        -0.211791        -0.004490
 C         2.615002        -0.304606         0.942376
 C         3.062699         0.856582         0.159046
 C         4.606384         1.219828         0.171531
 O         4.833012         0.082900        -0.711563
 C         3.364837         0.305705        -1.187318
 C         2.144344        -0.626680        -1.284140
 O         1.698701         1.369196         0.031519
 H        -0.183065        -0.337750         1.432735
 H        -0.722865         0.091433        -0.223683
 H        -0.148640        -1.597943         0.231358
 H         2.384132        -0.266345         2.085775
 H         3.137490        -1.256256         0.877898
 H         4.803767         2.083998        -0.459042
 H         5.099738         1.353104         1.121814
 H         3.535806         1.105592        -1.978951
 H         1.351949        -0.598286        -2.139805
 H         2.484277        -1.707819        -1.375717
