19
Iteration:     1charge 0 multiplicity 1
 C         0.025139        -0.530955         0.301640
 C         1.455462        -0.166029         0.031506
 C         2.633381        -0.384048         0.994220
 C         3.109549         0.831491         0.190435
 C         4.596744         1.218498         0.162181
 O         4.761617         0.156352        -0.843346
 C         3.341702         0.334329        -1.202337
 C         2.141813        -0.631764        -1.321060
 O         1.731878         1.311451         0.148629
 H        -0.292310        -0.160445         1.279734
 H        -0.633867        -0.103617        -0.460702
 H        -0.094932        -1.619298         0.283361
 H         2.388031        -0.100800         2.019218
 H         3.204172        -1.313510         0.947849
 H         4.818180         2.205019        -0.262984
 H         5.197776         1.033630         1.056160
 H         3.283934         1.126987        -1.956484
 H         1.544360        -0.429439        -2.212648
 H         2.370360        -1.699139        -1.284007
