19
Iteration:   989
 C         0.054582        -0.490984         0.142450
 C         1.457426        -0.126610        -0.005636
 C         2.605972        -0.410556         1.025533
 C         3.137807         0.772277         0.287995
 C         4.592539         1.263345         0.131971
 O         4.777539         0.168801        -0.852946
 C         3.327725         0.314750        -1.154013
 C         2.091451        -0.672371        -1.313518
 O         1.752263         1.302497         0.232312
 H        -0.435256        -0.017779         0.892468
 H        -0.579656        -0.313282        -0.782000
 H         0.121417        -1.545086         0.278995
 H         2.374025        -0.148042         2.096606
 H         3.273524        -1.287509         0.873013
 H         4.695515         2.233113        -0.430769
 H         5.267387         1.166048         1.065121
 H         3.021556         1.124294        -1.752882
 H         1.543073        -0.333009        -2.192452
 H         2.360219        -1.736590        -1.316429
