19
Iteration:  2118charge 0 multiplicity 1
 C         0.020564        -0.514853         0.297097
 C         1.432130        -0.193991         0.029106
 C         2.753734        -0.366229         0.935603
 C         3.063664         0.916441         0.163904
 C         4.604483         1.186611         0.226902
 O         4.776582         0.087801        -0.799607
 C         3.348712         0.297464        -1.199812
 C         2.160270        -0.630842        -1.315557
 O         1.648956         1.381064         0.120366
 H        -0.193229        -0.424331         1.341565
 H        -0.657910         0.183795        -0.299424
 H        -0.380020        -1.591281         0.159477
 H         2.474155        -0.215429         1.990517
 H         3.161988        -1.372090         0.751054
 H         5.119310         2.111474        -0.245705
 H         4.892465         1.125681         1.194040
 H         3.431510         0.968901        -1.973692
 H         1.629420        -0.475355        -2.249953
 H         2.436238        -1.663822        -1.273554
