19
Iteration:  1718charge 0 multiplicity 1
 C        -0.042174        -0.523648         0.180671
 C         1.440355        -0.246541        -0.014885
 C         2.693045        -0.353478         1.018563
 C         3.113443         0.828726         0.200737
 C         4.552497         1.245915         0.179467
 O         4.773277         0.115292        -0.824323
 C         3.353518         0.314598        -1.216714
 C         2.148038        -0.669999        -1.283490
 O         1.759568         1.385636         0.209410
 H        -0.240661        -0.083963         1.146554
 H        -0.765363         0.057133        -0.617833
 H        -0.240247        -1.608117         0.168698
 H         2.322312        -0.084061         2.019246
 H         3.376968        -1.243052         1.071519
 H         4.612809         2.189256        -0.311014
 H         5.239893         1.102887         1.138752
 H         3.372587         1.154795        -1.911812
 H         1.649602        -0.460961        -2.112190
 H         2.370219        -1.705304        -1.350081
