19
Iteration:  2204charge 0 multiplicity 1
 C        -0.019534        -0.508784         0.164910
 C         1.469398        -0.173854         0.078380
 C         2.630465        -0.367314         1.060264
 C         3.105188         0.820117         0.249740
 C         4.615313         1.263172         0.159795
 O         4.772506         0.099447        -0.878964
 C         3.362738         0.336305        -1.197421
 C         2.074198        -0.650197        -1.301283
 O         1.787551         1.345384         0.172659
 H        -0.484288         0.059051         0.906371
 H        -0.549176        -0.371949        -0.769052
 H         0.082778        -1.662159         0.363287
 H         2.293271        -0.151761         2.118921
 H         3.092898        -1.383893         0.906412
 H         4.858897         2.254113        -0.309860
 H         5.205463         0.955001         0.979472
 H         3.191505         1.150371        -1.949314
 H         1.427676        -0.497935        -2.118293
 H         2.396880        -1.617848        -1.223247
