19
Iteration:  4137charge 0 multiplicity 1
 C        -0.067415        -0.502637         0.191216
 C         1.479062        -0.154468         0.032029
 C         2.721912        -0.367782         1.022132
 C         3.138253         0.812952         0.173139
 C         4.561050         1.290301         0.131895
 O         4.738746         0.090810        -0.798753
 C         3.297294         0.366481        -1.172823
 C         2.193317        -0.723004        -1.251338
 O         1.719432         1.350058         0.152943
 H        -0.596080        -0.079316         1.068103
 H        -0.478513        -0.150475        -0.729481
 H        -0.325409        -1.524298         0.258845
 H         2.594402        -0.077703         2.077995
 H         3.198077        -1.394090         0.838139
 H         4.813938         2.151439        -0.477303
 H         5.177406         1.185322         1.079429
 H         3.457001         1.141228        -1.880417
 H         1.543607        -0.757305        -2.093809
 H         2.727352        -1.727464        -1.146829
