19
Iteration:  3201
 C         0.040589        -0.449311         0.301333
 C         1.482767        -0.189025        -0.017570
 C         2.647884        -0.306972         1.004219
 C         3.078982         0.814470         0.153626
 C         4.604184         1.222072         0.241684
 O         4.754732         0.204722        -0.789057
 C         3.344189         0.223577        -1.207820
 C         2.160600        -0.664651        -1.261234
 O         1.716290         1.263228         0.026363
 H        -0.295061         0.007537         1.282740
 H        -0.551539         0.136136        -0.492222
 H        -0.354459        -1.475864         0.136753
 H         2.504469        -0.106242         2.093282
 H         3.208658        -1.341310         1.098254
 H         5.028256         2.160782        -0.284509
 H         5.094904         0.922412         1.206756
 H         3.181587         1.101469        -1.916857
 H         1.384052        -0.474900        -2.128675
 H         2.281345        -1.738373        -1.194022
