19
Iteration:   861
 C         0.062105        -0.550798         0.190410
 C         1.538639        -0.239450         0.085210
 C         2.765161        -0.387210         0.993299
 C         3.097521         0.867267         0.122217
 C         4.567101         1.209376         0.202345
 O         4.621718         0.071090        -0.734463
 C         3.283480         0.448089        -1.225311
 C         2.158013        -0.571774        -1.271358
 O         1.716929         1.331257         0.114899
 H        -0.327101        -0.259695         1.113696
 H        -0.488065        -0.038404        -0.682336
 H        -0.179713        -1.718413         0.239089
 H         2.454358        -0.086924         2.027198
 H         3.407248        -1.284429         0.932469
 H         5.028944         2.101332        -0.354427
 H         5.239802         1.015526         1.163174
 H         3.106304         1.133244        -2.071187
 H         1.491265        -0.476351        -2.179146
 H         2.506002        -1.646487        -1.259705
