19
Iteration:  2177
 C        -0.024595        -0.605170         0.279708
 C         1.414556        -0.060428         0.038142
 C         2.497442        -0.363032         0.991113
 C         3.142579         0.731223         0.283768
 C         4.620942         1.190389         0.123750
 O         4.853882         0.188227        -0.863672
 C         3.408071         0.287024        -1.169643
 C         2.111948        -0.659331        -1.339899
 O         1.774445         1.415407         0.166481
 H        -0.409171         0.006793         1.160645
 H        -0.710890        -0.471050        -0.590923
 H         0.198403        -1.592473         0.426462
 H         2.319227        -0.119363         2.025201
 H         2.772430        -1.385269         0.844273
 H         4.599344         2.130467        -0.432839
 H         5.373529         1.158284         1.005285
 H         3.210599         1.061067        -1.966362
 H         1.558128        -0.382197        -2.308441
 H         2.316914        -1.825458        -1.314556
