19
Iteration:  2767
 C        -0.031156        -0.596594         0.227418
 C         1.419072        -0.090280         0.020910
 C         2.586302        -0.359681         0.982389
 C         3.135893         0.821321         0.178923
 C         4.609793         1.247033         0.192104
 O         4.835983         0.151481        -0.831433
 C         3.365291         0.211334        -1.175980
 C         2.090496        -0.662372        -1.231798
 O         1.744593         1.412395         0.115176
 H        -0.267816        -0.269893         1.273549
 H        -0.693626        -0.302962        -0.568629
 H         0.025050        -1.707424         0.150433
 H         2.291834        -0.033603         1.976270
 H         3.400035        -1.171629         0.853478
 H         4.880451         2.149256        -0.379645
 H         5.297585         1.146405         1.075127
 H         3.368719         1.020960        -1.870070
 H         1.456178        -0.512515        -2.152636
 H         2.171487        -1.703514        -1.051932
