19
Iteration:  4549charge 0 multiplicity 1
 C         0.035382        -0.582724         0.341980
 C         1.419301        -0.088729         0.058256
 C         2.553783        -0.301709         0.981301
 C         3.076340         0.855875         0.126191
 C         4.627864         1.183127         0.230044
 O         4.832096         0.122635        -0.798203
 C         3.370102         0.315455        -1.231955
 C         2.093233        -0.706752        -1.326776
 O         1.740350         1.365737         0.059599
 H        -0.257435        -0.276929         1.411862
 H        -0.625604        -0.026364        -0.297806
 H        -0.253901        -1.569245         0.185466
 H         2.336891        -0.201470         2.096269
 H         3.140938        -1.193502         0.928734
 H         4.918357         2.276698         0.071297
 H         5.090283         1.035415         1.170381
 H         3.427282         0.968029        -2.119987
 H         1.650245        -0.691090        -2.322981
 H         2.628124        -1.744633        -1.284693
