19
Iteration:   598
 C         0.058896        -0.533212         0.209607
 C         1.443209        -0.259492        -0.001144
 C         2.510993        -0.361497         1.034037
 C         3.133991         0.842644         0.217413
 C         4.667637         1.214918         0.151497
 O         4.758045         0.205626        -0.941714
 C         3.319011         0.336188        -1.154006
 C         2.138530        -0.621737        -1.296588
 O         1.772560         1.293117         0.263654
 H        -0.283300        -0.332707         1.237370
 H        -0.531504         0.025624        -0.544874
 H        -0.006044        -1.658878        -0.039450
 H         2.098373         0.010792         1.975464
 H         2.999109        -1.353160         1.117808
 H         4.805388         2.237097        -0.158274
 H         5.348313         1.021738         1.074655
 H         3.229424         1.220102        -1.937565
 H         1.552074        -0.337935        -2.218396
 H         2.360452        -1.744367        -1.412059
