19
Iteration:  4793
 C         0.048213        -0.489394         0.324167
 C         1.404979        -0.198601        -0.022834
 C         2.585788        -0.397919         0.961748
 C         3.056836         0.816988         0.220904
 C         4.643183         1.180696         0.236055
 O         4.817019         0.209132        -0.879945
 C         3.423517         0.314248        -1.193758
 C         2.112727        -0.745199        -1.312724
 O         1.702074         1.435132         0.099116
 H        -0.439601         0.136149         0.957324
 H        -0.506423        -0.564839        -0.639726
 H        -0.005870        -1.518298         0.739295
 H         2.426502        -0.001321         1.925885
 H         3.082792        -1.411127         1.197250
 H         4.888461         2.270173         0.058847
 H         5.092617         0.697662         1.184599
 H         3.384541         1.046577        -2.040893
 H         1.420866        -0.473017        -2.169802
 H         2.375673        -1.771145        -1.115276
