19
Iteration:  1228
 C         0.028011        -0.635212         0.258209
 C         1.447030        -0.120890        -0.002445
 C         2.685006        -0.391952         0.988533
 C         3.093645         0.852454         0.178791
 C         4.648508         1.259995         0.194531
 O         4.695190         0.096416        -0.748675
 C         3.397610         0.310265        -1.197754
 C         2.095153        -0.640171        -1.365218
 O         1.706251         1.366950         0.167786
 H        -0.144675        -0.290967         1.326521
 H        -0.548491         0.127199        -0.401325
 H        -0.053909        -1.652647        -0.072874
 H         2.533224        -0.000956         1.987355
 H         3.211484        -1.295638         0.920676
 H         4.723441         2.334108        -0.288339
 H         5.242195         1.206042         1.063232
 H         3.495263         1.057589        -2.120304
 H         1.613112        -0.292765        -2.245660
 H         2.088869        -1.740832        -1.351898
