19
Iteration:  1755charge 0 multiplicity 1
 C         0.038871        -0.506053         0.293327
 C         1.461609        -0.152735        -0.012859
 C         2.638301        -0.395060         0.995620
 C         3.148429         0.786051         0.166856
 C         4.614212         1.219881         0.252801
 O         4.761728         0.106667        -0.743317
 C         3.323088         0.409773        -1.281147
 C         2.134743        -0.620802        -1.295156
 O         1.664594         1.290963         0.062036
 H        -0.064392        -0.435372         1.398044
 H        -0.677110         0.115294        -0.216161
 H        -0.133575        -1.564237         0.037490
 H         2.392233         0.037840         1.999915
 H         3.355598        -1.242366         0.957247
 H         4.991824         2.159290        -0.266522
 H         5.146119         1.016378         1.169768
 H         3.277182         1.212782        -2.125267
 H         1.363499        -0.428143        -2.183566
 H         2.539706        -1.646732        -1.132139
