19
Iteration:  4672
 C         0.037945        -0.511827         0.343686
 C         1.403417        -0.090433        -0.043563
 C         2.496485        -0.355269         1.094185
 C         3.179299         0.743893         0.276386
 C         4.639687         1.265779         0.145095
 O         4.831424         0.130082        -0.841057
 C         3.345615         0.322013        -1.159397
 C         2.142415        -0.705310        -1.372544
 O         1.678442         1.336413         0.034953
 H        -0.215541        -0.372223         1.362847
 H        -0.763741        -0.077072        -0.304917
 H        -0.147768        -1.560112         0.147310
 H         2.348773         0.004855         2.111820
 H         3.206107        -1.215774         1.229557
 H         5.007068         2.262727        -0.253993
 H         5.314535         0.959574         1.015718
 H         3.327378         1.058849        -2.001025
 H         1.682478        -0.279492        -2.240937
 H         2.468731        -1.789266        -1.405283
