19
Iteration:  4075charge 0 multiplicity 1
 C        -0.052063        -0.519969         0.374466
 C         1.438776        -0.139544        -0.027672
 C         2.607394        -0.349230         1.065226
 C         3.149025         0.824115         0.236782
 C         4.598188         1.178144         0.218500
 O         4.766922         0.188977        -0.875315
 C         3.388481         0.367714        -1.191004
 C         2.260714        -0.694591        -1.341727
 O         1.683803         1.289805         0.001297
 H        -0.408099        -0.004606         1.341766
 H        -0.776698        -0.096702        -0.353752
 H        -0.211215        -1.624580         0.284598
 H         2.377420        -0.117729         2.153045
 H         3.058863        -1.247645         0.944667
 H         4.944193         2.121945        -0.228561
 H         5.102881         0.977647         1.195542
 H         3.164557         1.145557        -1.922652
 H         1.489383        -0.600301        -2.064243
 H         2.689921        -1.730264        -1.215701
