19
Iteration:  4086
 C        -0.090373        -0.523902         0.339128
 C         1.383798        -0.168161         0.030035
 C         2.589152        -0.351485         1.042782
 C         3.105304         0.800245         0.258500
 C         4.666220         1.192473         0.174704
 O         4.864823         0.234922        -0.888748
 C         3.338552         0.357124        -1.124813
 C         2.153529        -0.685637        -1.317979
 O         1.743812         1.276975        -0.026396
 H        -0.435212        -0.129124         1.361294
 H        -0.731123        -0.154087        -0.475741
 H        -0.227228        -1.644078         0.421106
 H         2.318690        -0.049375         2.103713
 H         3.151896        -1.206245         1.059424
 H         4.653222         2.254959        -0.082471
 H         5.441747         0.959223         0.930044
 H         3.381046         1.177226        -1.827853
 H         1.942912        -0.582897        -2.338237
 H         2.340161        -1.780004        -1.171503
