19
Iteration:  4560
 C         0.058634        -0.527622         0.355671
 C         1.429179        -0.139936         0.003983
 C         2.529595        -0.371913         1.060214
 C         3.139839         0.822547         0.145287
 C         4.603064         1.150866         0.245960
 O         4.874922         0.180441        -0.812173
 C         3.361123         0.262378        -1.230018
 C         2.134675        -0.640447        -1.343352
 O         1.665526         1.374795         0.029312
 H        -0.200184        -0.224037         1.426305
 H        -0.658873        -0.118886        -0.323637
 H         0.098736        -1.586154         0.322608
 H         2.351175         0.266447         1.987147
 H         3.004660        -1.332614         1.110249
 H         4.804386         2.082423        -0.359086
 H         5.071025         0.939078         1.173202
 H         3.354876         1.002067        -2.055196
 H         1.593761        -0.280900        -2.208509
 H         2.189029        -1.817807        -1.231550
