19
Iteration:  4258
 C         0.000820        -0.476987         0.244663
 C         1.435757        -0.303736         0.065733
 C         2.660291        -0.360063         1.110463
 C         3.137367         0.880798         0.197600
 C         4.594100         1.317929         0.156469
 O         4.742647         0.075770        -0.810223
 C         3.362080         0.332267        -1.220137
 C         2.103442        -0.690417        -1.304341
 O         1.734976         1.336032         0.089439
 H        -0.576499         0.176276         0.904672
 H        -0.381271        -0.309688        -0.726424
 H        -0.202989        -1.498106         0.432108
 H         2.326616        -0.012764         2.153290
 H         3.241687        -1.277533         1.097827
 H         4.786911         2.199907        -0.475694
 H         5.290733         1.161364         1.094650
 H         3.402124         1.121484        -1.916639
 H         1.655044        -0.403186        -2.213178
 H         2.613669        -1.666279        -1.645841
