19
Iteration:  2535
 C        -0.009500        -0.525271         0.250377
 C         1.435766        -0.239761         0.027252
 C         2.648470        -0.352094         1.034552
 C         3.135924         0.814700         0.216058
 C         4.594702         1.187095         0.192458
 O         4.765247         0.140150        -0.840409
 C         3.349660         0.309076        -1.212822
 C         2.151947        -0.667507        -1.396260
 O         1.720047         1.392091         0.198843
 H        -0.279981         0.243082         1.022721
 H        -0.517671        -0.413177        -0.750105
 H        -0.264279        -1.466361         0.642509
 H         2.431285         0.297242         1.970226
 H         3.223359        -1.372424         1.163726
 H         4.688042         2.273927        -0.280914
 H         5.204410         1.009474         1.055314
 H         3.400681         1.020339        -2.175411
 H         1.527483        -0.193488        -2.137251
 H         2.464705        -1.750850        -1.409133
