19
Iteration:  4712charge 0 multiplicity 1
 C        -0.029639        -0.528754         0.264191
 C         1.449810        -0.162023         0.067910
 C         2.687542        -0.308882         1.029161
 C         3.103976         0.846870         0.132279
 C         4.583033         1.217766         0.276039
 O         4.744344         0.101069        -0.787967
 C         3.307367         0.297251        -1.297541
 C         2.202479        -0.652879        -1.296906
 O         1.741250         1.343276         0.071282
 H        -0.165050        -0.464163         1.408760
 H        -0.543614         0.290346        -0.208028
 H        -0.217083        -1.476980        -0.185521
 H         2.665479        -0.212136         2.196467
 H         3.131678        -1.205231         0.680419
 H         4.882583         2.222045        -0.129280
 H         4.970122         1.166401         1.242097
 H         3.312769         0.982400        -2.122203
 H         1.515941        -0.646076        -2.131658
 H         2.349048        -1.795570        -1.213869
