19
Iteration:  1559
 C        -0.005532        -0.505488         0.292856
 C         1.471753        -0.234473         0.007265
 C         2.627200        -0.369066         0.984929
 C         3.072979         0.923661         0.221514
 C         4.652071         1.216389         0.210513
 O         4.730310         0.121451        -0.796359
 C         3.399159         0.356437        -1.244978
 C         2.150978        -0.635058        -1.339505
 O         1.717225         1.308568         0.126395
 H        -0.394364        -0.449797         1.379606
 H        -0.753450        -0.000674        -0.387384
 H        -0.238284        -1.655983        -0.100416
 H         2.392957        -0.152463         2.019256
 H         3.297637        -1.219411         0.888404
 H         5.189172         2.234553        -0.094141
 H         5.203095         0.853612         1.082552
 H         3.271791         1.219280        -2.023298
 H         1.370543        -0.556292        -2.214389
 H         2.403799        -1.697461        -1.247719
