19
Iteration:  3161charge 0 multiplicity 1
 C         0.021244        -0.597330         0.272815
 C         1.414927        -0.120669         0.023205
 C         2.545318        -0.322447         0.989690
 C         3.156922         0.841606         0.135560
 C         4.652201         1.264616         0.076371
 O         4.805968         0.066857        -0.675324
 C         3.331512         0.361037        -1.227151
 C         2.083152        -0.650521        -1.303115
 O         1.764864         1.335399         0.160585
 H        -0.157421        -0.359216         1.274166
 H        -0.628500        -0.068058        -0.419007
 H        -0.158339        -1.614964        -0.089321
 H         2.322779         0.088767         1.931144
 H         3.120304        -1.241674         1.085648
 H         4.737209         2.209335        -0.474707
 H         5.137635         1.146356         1.042257
 H         3.419229         0.986474        -2.188127
 H         1.758204        -0.683499        -2.358036
 H         2.180928        -1.732128        -0.996717
