19
Iteration:  2353charge 0 multiplicity 1
 C        -0.042361        -0.598071         0.268581
 C         1.441289        -0.111850        -0.037315
 C         2.503746        -0.398390         1.054413
 C         3.135067         0.800381         0.178941
 C         4.582931         1.229999         0.182899
 O         4.841043         0.157587        -0.879711
 C         3.361245         0.338920        -1.278753
 C         2.154362        -0.646001        -1.275143
 O         1.807569         1.379612         0.167936
 H        -0.304832         0.094452         1.197088
 H        -0.641137        -0.354535        -0.639381
 H         0.007734        -1.581347         0.775319
 H         2.283960        -0.072495         2.056406
 H         2.943737        -1.372981         1.044519
 H         4.876867         2.255838        -0.087371
 H         5.232835         0.844029         1.021441
 H         3.133296         1.100143        -1.962769
 H         1.329156        -0.692231        -2.080367
 H         2.457962        -1.709378        -0.894356
