19
Iteration:  1270charge 0 multiplicity 1
 C        -0.012678        -0.567550         0.340678
 C         1.454077        -0.197684         0.072764
 C         2.648844        -0.386684         0.962962
 C         3.138875         0.827720         0.171608
 C         4.615803         1.196573         0.280481
 O         4.718320         0.154715        -0.809393
 C         3.359658         0.387399        -1.227092
 C         2.155470        -0.587446        -1.357585
 O         1.727086         1.308668         0.044406
 H        -0.514393        -0.222987         1.340990
 H        -0.646620        -0.154700        -0.464973
 H        -0.122124        -1.579234         0.234256
 H         2.367511        -0.007396         1.970017
 H         3.242524        -1.296536         0.959725
 H         4.964873         2.133897        -0.310398
 H         5.305949         0.984033         1.162343
 H         3.275985         1.226122        -1.948741
 H         1.544056        -0.412982        -2.268909
 H         2.460912        -1.670272        -1.188857
