19
Iteration:  4938charge 0 multiplicity 1
 C        -0.005535        -0.475221         0.379191
 C         1.453716        -0.092635        -0.046538
 C         2.500500        -0.424861         0.987355
 C         3.085571         0.803016         0.213337
 C         4.601126         1.232052         0.227807
 O         4.783312         0.141199        -0.868818
 C         3.368376         0.297883        -1.209349
 C         2.278425        -0.648491        -1.319664
 O         1.717593         1.330849         0.084757
 H        -0.285474        -0.049944         1.271076
 H        -0.695139        -0.125310        -0.397130
 H        -0.052711        -1.647986         0.438269
 H         2.031886         0.056199         1.880566
 H         3.073146        -1.343360         1.113377
 H         4.871919         2.181189        -0.212355
 H         5.182668         0.910240         1.220342
 H         3.511209         0.918263        -2.148826
 H         1.576654        -0.645286        -2.200124
 H         2.711471        -1.622954        -1.037825
