19
Iteration:  1044
 C         0.075427        -0.552490         0.339648
 C         1.461062        -0.167077         0.019729
 C         2.666931        -0.400564         0.941904
 C         3.094033         0.884262         0.145270
 C         4.590448         1.179941         0.335505
 O         4.728638         0.171139        -0.801204
 C         3.320736         0.355226        -1.274435
 C         2.160582        -0.645724        -1.373222
 O         1.680740         1.332880         0.101974
 H        -0.205876        -0.307520         1.304511
 H        -0.574198         0.050959        -0.372755
 H        -0.241548        -1.563554         0.093416
 H         2.494465        -0.120480         2.020448
 H         3.283016        -1.311898         0.823157
 H         5.118597         2.153690         0.082356
 H         5.087050         0.836408         1.351804
 H         3.307723         1.099977        -2.034785
 H         1.652554        -0.569684        -2.328114
 H         2.419507        -1.689479        -1.194535
