19
Iteration:  1029
 C        -0.116684        -0.571852         0.300268
 C         1.409140        -0.138895         0.031453
 C         2.649245        -0.356010         0.990116
 C         3.141571         0.763276         0.180137
 C         4.545388         1.198314         0.251826
 O         4.835882         0.133199        -0.855371
 C         3.361545         0.409179        -1.188377
 C         2.216242        -0.602417        -1.360938
 O         1.740801         1.308722         0.098065
 H        -0.320824        -0.414317         1.531251
 H        -0.944085        -0.163590        -0.340686
 H         0.023712        -1.660735         0.318639
 H         2.460813        -0.075576         1.985510
 H         3.201595        -1.274478         1.036521
 H         4.642315         2.276633        -0.164137
 H         5.084230         0.956731         1.077244
 H         3.390043         1.357368        -1.906912
 H         1.542570        -0.377898        -2.178511
 H         2.544815        -1.632256        -1.526712
