19
Iteration:   537
 C         0.087717        -0.595239         0.376412
 C         1.466552        -0.234698        -0.052722
 C         2.581268        -0.384785         0.979699
 C         3.106817         0.773011         0.126102
 C         4.597989         1.211589         0.204251
 O         4.892638         0.156629        -0.770736
 C         3.344599         0.309180        -1.162508
 C         2.025087        -0.531767        -1.469713
 O         1.689283         1.377747         0.183931
 H        -0.023172        -0.325520         1.404858
 H        -0.676242        -0.049465        -0.255358
 H        -0.116422        -1.699261         0.265510
 H         2.327486        -0.088189         2.001420
 H         3.182681        -1.311371         0.999339
 H         4.786863         2.248462        -0.257760
 H         5.084536         1.043098         1.101882
 H         3.313187         1.132592        -1.831906
 H         1.496421        -0.005164        -2.278430
 H         2.124018        -1.582165        -1.605242
