19
Iteration:  2101charge 0 multiplicity 1
 C        -0.042875        -0.595175         0.306434
 C         1.442938        -0.137942        -0.010984
 C         2.539347        -0.347172         0.968341
 C         3.131817         0.806709         0.160086
 C         4.590819         1.258043         0.160504
 O         4.779776         0.105545        -0.740616
 C         3.376985         0.324346        -1.240300
 C         2.118743        -0.639456        -1.326289
 O         1.814413         1.361185         0.179190
 H        -0.202722        -0.581106         1.418662
 H        -0.702473         0.025546        -0.319955
 H        -0.069151        -1.572249        -0.037338
 H         2.373178         0.123598         1.931264
 H         3.279287        -1.136871         0.985161
 H         4.753047         2.216334        -0.266597
 H         5.420823         1.056927         0.997711
 H         3.300766         1.052989        -2.164642
 H         1.542638        -0.413006        -2.265424
 H         2.231922        -1.789897        -1.331263
