19
Iteration:    14charge 0 multiplicity 1
 C         0.083308        -0.589904         0.322837
 C         1.434325        -0.071577         0.019717
 C         2.534766        -0.346590         0.982351
 C         3.168050         0.818059         0.289173
 C         4.645740         1.283479         0.159246
 O         4.740762         0.156282        -0.857520
 C         3.330791         0.217564        -1.175989
 C         2.127196        -0.720214        -1.390967
 O         1.778581         1.380920         0.199115
 H        -0.349227        -0.605471         1.238513
 H        -0.683694        -0.008078        -0.494699
 H         0.196938        -1.682440        -0.084950
 H         2.071541        -0.174874         1.939764
 H         3.003653        -1.268333         1.030119
 H         4.665414         2.256317        -0.403451
 H         5.387235         1.267112         0.853297
 H         3.148331         1.117571        -1.987915
 H         1.644243        -0.201454        -2.312395
 H         2.048074        -1.900866        -1.538387
