19
Iteration:   596
 C         0.056953        -0.539131         0.204631
 C         1.460498        -0.267338        -0.015719
 C         2.517248        -0.361914         1.033102
 C         3.119670         0.863012         0.215496
 C         4.662771         1.196544         0.160054
 O         4.752738         0.201526        -0.937164
 C         3.318122         0.343851        -1.165953
 C         2.149139        -0.628392        -1.301410
 O         1.762122         1.301765         0.271235
 H        -0.278636        -0.294679         1.339228
 H        -0.521396         0.044555        -0.498412
 H        -0.018544        -1.595651        -0.031026
 H         2.098139         0.009399         1.972517
 H         3.043668        -1.331450         1.100443
 H         4.811460         2.272470        -0.124577
 H         5.392207         0.951502         1.069466
 H         3.245132         1.201175        -2.024416
 H         1.538522        -0.419845        -2.155532
 H         2.367076        -1.688161        -1.380767
