19
Iteration:   365charge 0 multiplicity 1
 C         0.078366        -0.501394         0.274755
 C         1.508730        -0.245379         0.011936
 C         2.716420        -0.390558         0.982775
 C         3.073476         0.965334         0.161071
 C         4.682997         1.167086         0.204498
 O         4.734819         0.133947        -0.794697
 C         3.351772         0.357949        -1.245692
 C         2.117365        -0.668844        -1.354625
 O         1.542920         1.329659         0.211520
 H        -0.082595        -0.151814         1.364714
 H        -0.484433         0.076826        -0.553645
 H        -0.251553        -1.517797         0.290635
 H         2.676866        -0.205213         2.043599
 H         3.335435        -1.288848         0.804643
 H         4.949552         2.115910        -0.233543
 H         5.302732         1.017326         1.136569
 H         3.302543         0.986983        -2.179856
 H         1.450135        -0.405816        -2.211543
 H         2.326691        -1.772524        -1.370419
