19
Iteration:  2329
 C         0.034072        -0.521304         0.246200
 C         1.499886        -0.243406        -0.005206
 C         2.671674        -0.311406         0.955744
 C         3.128666         0.867304         0.171909
 C         4.587894         1.193699         0.159630
 O         4.650123         0.064601        -0.821080
 C         3.307728         0.303931        -1.146469
 C         2.232216        -0.671601        -1.322128
 O         1.709641         1.425289         0.203356
 H        -0.523904        -0.028504         1.216269
 H        -0.501709        -0.109724        -0.739289
 H        -0.200229        -1.550865         0.508660
 H         2.566647         0.053028         1.974116
 H         3.374006        -1.156360         0.935342
 H         4.896786         2.241423        -0.125249
 H         5.025960         0.932932         1.101384
 H         3.261120         0.941790        -1.984996
 H         1.467883        -0.329238        -2.081543
 H         2.655071        -1.758554        -1.462599
