19
Iteration:  2663
 C         0.074213        -0.553623         0.275655
 C         1.465816        -0.106584        -0.007474
 C         2.530505        -0.353534         1.024618
 C         3.160781         0.813924         0.170700
 C         4.597163         1.264368         0.109320
 O         4.844304         0.095753        -0.733965
 C         3.331020         0.273391        -1.227581
 C         2.062629        -0.652987        -1.366503
 O         1.718551         1.369413         0.193137
 H        -0.209890        -0.295970         1.300048
 H        -0.659258        -0.010826        -0.403830
 H         0.234177        -1.698296         0.146660
 H         2.265607         0.000586         2.029474
 H         2.744570        -1.394519         1.120660
 H         4.541550         2.242363        -0.386222
 H         5.352475         1.298174         0.907163
 H         3.520563         1.008499        -2.050231
 H         1.537827        -0.564956        -2.355312
 H         2.330227        -1.763881        -1.222388
