19
Iteration:  2645
 C        -0.048650        -0.595067         0.326195
 C         1.414742        -0.186953        -0.008184
 C         2.568684        -0.350269         1.012172
 C         3.104457         0.823899         0.235461
 C         4.682989         1.266718         0.132645
 O         4.777631         0.102456        -0.807201
 C         3.393021         0.298593        -1.164655
 C         2.173182        -0.595683        -1.277795
 O         1.747423         1.343203         0.037492
 H        -0.219677        -0.387212         1.436570
 H        -0.773667         0.055642        -0.201082
 H        -0.237408        -1.586843         0.012851
 H         2.152454         0.010533         2.020940
 H         3.274230        -1.279948         1.003548
 H         4.874250         2.219284        -0.478690
 H         5.232685         1.199308         1.046961
 H         3.402479         1.176694        -1.832633
 H         1.589281        -0.318330        -2.152693
 H         2.173228        -1.675675        -1.438617
