19
Iteration:   524
 C         0.036911        -0.619102         0.366940
 C         1.412060        -0.146586        -0.005485
 C         2.563156        -0.404704         0.969850
 C         3.128834         0.805104         0.310999
 C         4.536650         1.287462         0.145418
 O         4.897272         0.120197        -0.778278
 C         3.356325         0.271431        -1.220380
 C         2.049950        -0.489684        -1.481312
 O         1.805758         1.304689         0.179786
 H        -0.190571        -0.303652         1.271886
 H        -0.751381        -0.257135        -0.345707
 H         0.138432        -1.796095         0.296954
 H         2.116776        -0.078626         1.936347
 H         3.071936        -1.376889         1.046041
 H         4.543209         2.245671        -0.389050
 H         5.197424         1.364350         0.942687
 H         3.493661         0.991840        -1.879105
 H         1.432343         0.029664        -2.303914
 H         2.028258        -1.584529        -1.853308
