19
Iteration:  1321
 C        -0.095687        -0.527825         0.229275
 C         1.423879        -0.140815         0.054153
 C         2.521047        -0.429773         1.038873
 C         3.169750         0.771096         0.218230
 C         4.599636         1.270791         0.172894
 O         4.796021         0.213743        -0.898379
 C         3.323244         0.378669        -1.193629
 C         2.205125        -0.660998        -1.293807
 O         1.825087         1.264651         0.133591
 H        -0.465374         0.119048         1.062020
 H        -0.757568        -0.382023        -0.559878
 H        -0.089555        -1.697411         0.517426
 H         2.478813         0.014457         2.057782
 H         3.081304        -1.436779         1.034877
 H         4.876204         2.250958        -0.214684
 H         5.204373         0.936327         1.096873
 H         3.191400         1.180836        -1.886324
 H         1.643540        -0.377555        -2.213705
 H         2.465335        -1.712906        -1.199635
