19
Iteration:  4298charge 0 multiplicity 1
 C        -0.062573        -0.499120         0.286270
 C         1.427648        -0.106134         0.074834
 C         2.500906        -0.408183         1.008603
 C         3.130907         0.771822         0.183818
 C         4.594081         1.272643         0.182545
 O         4.851609         0.193507        -0.877806
 C         3.417745         0.334255        -1.200752
 C         2.180469        -0.784602        -1.305355
 O         1.781365         1.401105         0.090342
 H        -0.426236        -0.246433         1.326700
 H        -0.722768        -0.333436        -0.591866
 H         0.002362        -1.593684         0.486757
 H         2.338875         0.026749         1.972873
 H         2.820312        -1.448205         1.105707
 H         4.706911         2.308230        -0.162081
 H         5.098946         0.996247         1.081935
 H         3.249859         0.928293        -2.122613
 H         1.525752        -0.842664        -2.195056
 H         2.343369        -1.786096        -0.895033
