19
Iteration:  4227charge 0 multiplicity 1
 C         0.057375        -0.514309         0.332674
 C         1.400254        -0.110429        -0.071704
 C         2.687028        -0.295550         0.995427
 C         3.084742         0.900778         0.157377
 C         4.630301         1.207303         0.191808
 O         4.790509         0.085946        -0.773503
 C         3.383683         0.273420        -1.198148
 C         2.115528        -0.689000        -1.310798
 O         1.617670         1.333361         0.123828
 H        -0.413467        -0.242058         1.265270
 H        -0.527329        -0.236700        -0.545310
 H         0.033051        -1.624697         0.329364
 H         2.387277        -0.112284         2.093891
 H         3.326313        -1.177966         1.019095
 H         4.862280         2.130060        -0.296009
 H         5.228880         1.018816         1.133728
 H         3.324238         1.042890        -2.000059
 H         1.667620        -0.594110        -2.306158
 H         2.594280        -1.694616        -1.284914
