19
Iteration:  3143charge 0 multiplicity 1
 C         0.050774        -0.565482         0.305400
 C         1.450855        -0.095441        -0.046453
 C         2.564930        -0.340503         1.032318
 C         3.086926         0.831898         0.244704
 C         4.583323         1.272952         0.117470
 O         4.743592         0.025904        -0.797167
 C         3.367685         0.235600        -1.136822
 C         2.215034        -0.628849        -1.342753
 O         1.740470         1.426431         0.090950
 H        -0.186203        -0.446257         1.462126
 H        -0.796216        -0.212210        -0.337345
 H         0.121779        -1.679092         0.099446
 H         2.136456        -0.032188         2.045100
 H         3.012579        -1.320774         0.915773
 H         4.721353         2.129531        -0.542408
 H         5.363342         1.377048         1.021272
 H         3.409667         1.019143        -1.806771
 H         1.593752        -0.391181        -2.135258
 H         2.371427        -1.719671        -1.335794
