19
Iteration:  3861
 C         0.036831        -0.518905         0.286181
 C         1.482928        -0.220429         0.080881
 C         2.710957        -0.244935         0.971164
 C         3.148530         0.926010         0.103072
 C         4.573000         1.185944         0.261370
 O         4.746809         0.078356        -0.755608
 C         3.330167         0.344630        -1.273291
 C         2.086025        -0.671940        -1.358625
 O         1.680776         1.273169         0.127220
 H        -0.132870        -0.247201         1.340555
 H        -0.686596        -0.056236        -0.444340
 H        -0.167973        -1.630510         0.135164
 H         2.392740         0.288284         1.949455
 H         3.270574        -1.224209         1.202456
 H         4.898606         2.100444        -0.245798
 H         4.989886         0.991210         1.216415
 H         3.591746         1.034469        -2.149115
 H         1.364402        -0.373635        -2.217094
 H         2.541082        -1.632920        -1.408290
