19
Iteration:  2156
 C        -0.021218        -0.538670         0.355517
 C         1.449188        -0.231073        -0.025851
 C         2.569033        -0.412270         1.042411
 C         3.120293         0.834721         0.176753
 C         4.588631         1.229483         0.224535
 O         4.801752         0.130849        -0.865062
 C         3.337195         0.338909        -1.192889
 C         2.167477        -0.595573        -1.367598
 O         1.756405         1.347411         0.108429
 H        -0.250866         0.103018         1.272838
 H        -0.687937        -0.077199        -0.381118
 H        -0.198818        -1.574857         0.390780
 H         2.286323         0.095626         1.953561
 H         3.280389        -1.218124         1.256520
 H         5.007723         2.052472        -0.256391
 H         5.046936         0.888110         1.248747
 H         3.263933         1.079762        -2.100191
 H         1.648554        -0.314630        -2.329744
 H         2.473563        -1.712688        -1.333486
