19
Iteration:  1731
 C        -0.047678        -0.494714         0.258956
 C         1.462087        -0.246224         0.043249
 C         2.693610        -0.358324         0.950355
 C         3.065561         0.903012         0.169640
 C         4.623877         1.200944         0.159295
 O         4.737936         0.113776        -0.782241
 C         3.358656         0.318789        -1.170930
 C         2.245119        -0.659462        -1.355736
 O         1.641170         1.328010         0.200278
 H        -0.438086        -0.173134         1.202903
 H        -0.444865         0.221792        -0.620096
 H        -0.425343        -1.456061         0.060364
 H         2.581419         0.002194         2.001170
 H         3.404792        -1.214122         0.800673
 H         4.956664         2.113750        -0.281689
 H         5.255556         0.988121         1.133875
 H         3.364337         1.028461        -2.027756
 H         1.702672        -0.413277        -2.250854
 H         2.483189        -1.655966        -1.186347
