19
Iteration:   680charge 0 multiplicity 1
 C        -0.002716        -0.554816         0.386800
 C         1.463448        -0.241222         0.015885
 C         2.692504        -0.367925         0.914508
 C         3.071045         0.881982         0.156642
 C         4.572551         1.126041         0.237633
 O         4.742670         0.104874        -0.860618
 C         3.336791         0.455519        -1.196827
 C         2.245858        -0.591373        -1.329078
 O         1.683740         1.322089         0.082639
 H        -0.229107         0.064818         1.326802
 H        -0.627378        -0.128385        -0.349450
 H        -0.335665        -1.512018         0.537939
 H         2.542730        -0.092638         1.977890
 H         3.316345        -1.276929         0.873800
 H         4.838172         2.151245         0.105736
 H         4.947204         0.745625         1.130065
 H         3.319792         1.277860        -1.781839
 H         1.539879        -0.503091        -2.182959
 H         2.636659        -1.575939        -1.252132
