19
Iteration:  1916charge 0 multiplicity 1
 C         0.041345        -0.523814         0.305924
 C         1.438751        -0.175485         0.058801
 C         2.618883        -0.309921         1.029672
 C         3.118664         0.813331         0.138916
 C         4.576069         1.175657         0.207255
 O         4.778263         0.161421        -0.798415
 C         3.381704         0.343012        -1.259206
 C         2.177203        -0.644386        -1.341895
 O         1.685997         1.295406         0.118385
 H        -0.353371        -0.416062         1.353753
 H        -0.652921         0.061198        -0.394900
 H        -0.278620        -1.509352        -0.009703
 H         2.221207         0.143865         1.943933
 H         3.105470        -1.269320         1.104455
 H         4.808434         2.168448        -0.102094
 H         5.362620         0.865864         1.019999
 H         3.315970         1.145542        -1.918871
 H         1.745001        -0.459857        -2.289528
 H         2.394154        -1.698586        -1.326690
