19
Iteration:  3623charge 0 multiplicity 1
 C        -0.109542        -0.547666         0.302199
 C         1.442645        -0.105230         0.049104
 C         2.607143        -0.333548         1.019691
 C         3.147881         0.782090         0.186526
 C         4.614088         1.269105         0.156043
 O         4.868409         0.208409        -0.790096
 C         3.428157         0.216947        -1.179434
 C         2.054873        -0.672146        -1.296085
 O         1.739215         1.333606         0.051408
 H        -0.634380        -0.283608         1.223937
 H        -0.701581        -0.314111        -0.608087
 H        -0.130921        -1.663865         0.352575
 H         2.288144        -0.152101         2.038155
 H         3.214566        -1.312230         1.041458
 H         4.795077         2.210952        -0.360623
 H         5.294101         1.119566         1.039286
 H         3.375720         1.059095        -1.893223
 H         1.580922        -0.446898        -2.346322
 H         2.305038        -1.716967        -1.350365
