19
Iteration:  1280charge 0 multiplicity 1
 C         0.008217        -0.571176         0.324960
 C         1.434580        -0.130647        -0.018732
 C         2.592423        -0.355689         0.976079
 C         3.100286         0.821097         0.205341
 C         4.613223         1.238244         0.215928
 O         4.769068         0.178590        -0.877264
 C         3.349625         0.308006        -1.151572
 C         2.159002        -0.637019        -1.307615
 O         1.768883         1.311891         0.089980
 H        -0.297383        -0.178555         1.375615
 H        -0.660562        -0.249428        -0.446982
 H         0.108473        -1.590349         0.336892
 H         2.216994        -0.200094         2.009446
 H         3.035094        -1.363599         0.882118
 H         4.904849         2.295777         0.096435
 H         5.114177         0.814662         1.163466
 H         3.297942         1.069976        -1.883775
 H         1.578312        -0.280958        -2.204854
 H         2.335471        -1.753415        -1.495796
