19
Iteration:  3039charge 0 multiplicity 1
 C        -0.017089        -0.532429         0.203861
 C         1.430022        -0.145308         0.080368
 C         2.521109        -0.326953         1.089613
 C         3.111471         0.806320         0.242267
 C         4.567097         1.214295         0.083368
 O         4.915476         0.124059        -0.846201
 C         3.400968         0.270242        -1.197386
 C         2.113237        -0.616300        -1.269743
 O         1.698405         1.326144         0.144256
 H        -0.267624        -0.025727         1.122269
 H        -0.738839        -0.268654        -0.673398
 H         0.066142        -1.706477         0.218477
 H         2.298476        -0.035937         2.088614
 H         3.134230        -1.233184         1.264035
 H         4.789152         2.150760        -0.630887
 H         5.297273         1.124103         0.946936
 H         3.333496         1.179699        -1.968275
 H         1.709973        -0.258305        -2.352198
 H         2.361336        -1.687779        -1.394135
