19
Iteration:  2666charge 0 multiplicity 1
 C         0.079941        -0.547939         0.273766
 C         1.460858        -0.104754         0.002506
 C         2.556488        -0.348454         1.018268
 C         3.134976         0.811280         0.174263
 C         4.598778         1.262098         0.103735
 O         4.847638         0.095590        -0.737666
 C         3.318427         0.250083        -1.245919
 C         2.078692        -0.639727        -1.364348
 O         1.723582         1.370753         0.202046
 H        -0.260759        -0.251245         1.339728
 H        -0.662870        -0.102837        -0.460301
 H         0.244235        -1.589366         0.103580
 H         2.206935         0.045652         2.050715
 H         2.775308        -1.481943         1.056452
 H         4.562066         2.287929        -0.423058
 H         5.184959         1.286747         0.986390
 H         3.561482         1.028102        -1.893930
 H         1.551586        -0.651312        -2.327512
 H         2.290238        -1.740989        -1.232541
