19
Iteration:    29
 C         0.038388        -0.659621         0.214132
 C         1.434205        -0.082147         0.001340
 C         2.513154        -0.395756         1.089330
 C         3.132619         0.763962         0.249021
 C         4.593046         1.267562         0.037490
 O         4.836494         0.134572        -0.861031
 C         3.348033         0.253428        -1.107145
 C         2.088882        -0.595821        -1.351380
 O         1.801518         1.443193         0.194702
 H        -0.038995        -0.666085         1.389822
 H        -0.878423        -0.146859        -0.195597
 H        -0.017466        -1.691814        -0.149812
 H         2.274763         0.061231         2.076750
 H         3.011911        -1.407794         0.950836
 H         4.598724         2.234795        -0.484307
 H         5.288813         1.196911         0.956586
 H         3.292624         1.157042        -1.848766
 H         1.562856        -0.443234        -2.305237
 H         2.249448        -1.671349        -1.147832
