19
Iteration:  1744charge 0 multiplicity 1
 C         0.024166        -0.449549         0.258466
 C         1.451721        -0.162499         0.079708
 C         2.677103        -0.384905         0.978566
 C         3.097159         0.941591         0.142320
 C         4.666576         1.210380         0.192391
 O         4.759357         0.086606        -0.743176
 C         3.327557         0.409384        -1.248607
 C         2.192233        -0.673737        -1.321599
 O         1.614350         1.232512         0.131695
 H        -0.294520        -0.261097         1.309048
 H        -0.624679         0.185271        -0.344806
 H        -0.167850        -1.491974         0.000494
 H         2.414031        -0.315537         2.066594
 H         3.195537        -1.370621         0.896116
 H         5.092468         2.194968        -0.200849
 H         5.085830         0.994376         1.161631
 H         3.349705         1.193662        -2.124368
 H         1.466854        -0.723080        -2.333472
 H         2.588204        -1.717765        -1.444373
