19
Iteration:   838charge 0 multiplicity 1
 C        -0.047732        -0.561429         0.306495
 C         1.454244        -0.190646         0.002441
 C         2.588762        -0.330976         1.023780
 C         3.104936         0.827760         0.221302
 C         4.614295         1.204392         0.154222
 O         4.838479         0.166259        -0.890572
 C         3.375727         0.374589        -1.158587
 C         2.172284        -0.644114        -1.375840
 O         1.700363         1.319308         0.181430
 H        -0.510021        -0.238112         1.175352
 H        -0.609614        -0.221923        -0.634556
 H        -0.140021        -1.706183         0.315615
 H         2.270900         0.081451         2.022108
 H         3.179010        -1.271620         1.118434
 H         4.913085         2.209658        -0.174737
 H         5.222175         0.883620         1.110683
 H         3.244137         1.075901        -1.951286
 H         1.557557        -0.510963        -2.293689
 H         2.430531        -1.740393        -1.254749
