19
Iteration:  2648charge 0 multiplicity 1
 C        -0.014784        -0.594009         0.317476
 C         1.401822        -0.161711        -0.011150
 C         2.540616        -0.370000         1.017784
 C         3.124137         0.809455         0.235730
 C         4.673663         1.279677         0.126640
 O         4.781943         0.102711        -0.791411
 C         3.405145         0.308115        -1.172598
 C         2.156408        -0.617288        -1.287197
 O         1.748014         1.349265         0.058162
 H        -0.159502        -0.401831         1.359114
 H        -0.750248        -0.042355        -0.208218
 H        -0.354940        -1.598627         0.052633
 H         2.182972         0.049214         1.927637
 H         3.250993        -1.184348         1.014473
 H         4.845488         2.141321        -0.497862
 H         5.359389         1.226290         1.060318
 H         3.291548         1.151422        -1.995630
 H         1.541710        -0.275528        -2.124801
 H         2.199527        -1.668981        -1.401839
