19
Iteration:  3126charge 0 multiplicity 1
 C         0.043851        -0.568920         0.304111
 C         1.430699        -0.199550         0.043689
 C         2.579260        -0.338969         1.031810
 C         3.123420         0.882659         0.236267
 C         4.567448         1.155935         0.146548
 O         4.816726         0.092476        -0.789062
 C         3.378320         0.312228        -1.169797
 C         2.112123        -0.642715        -1.333780
 O         1.723062         1.396768        -0.003389
 H        -0.355693        -0.166097         1.182956
 H        -0.559761         0.017402        -0.384317
 H        -0.121641        -1.612721         0.529346
 H         2.352266        -0.074345         2.070975
 H         3.238257        -1.247084         1.103940
 H         4.817164         2.210777        -0.217250
 H         5.206786         1.047986         0.962219
 H         3.280218         1.277241        -1.854105
 H         1.569690        -0.318125        -2.325447
 H         2.441887        -1.691684        -1.326047
