19
Iteration:  4316
 C        -0.054472        -0.498481         0.333055
 C         1.422967        -0.210785         0.021338
 C         2.584234        -0.260601         1.069757
 C         3.120378         0.775641         0.186439
 C         4.561523         1.161761         0.207648
 O         4.801881         0.219294        -0.854636
 C         3.329141         0.271856        -1.217809
 C         2.197814        -0.723078        -1.302690
 O         1.765634         1.350437         0.037578
 H        -0.208440        -0.140937         1.339938
 H        -0.624199         0.028680        -0.479398
 H        -0.238108        -1.620074         0.246731
 H         2.282383         0.006851         2.091505
 H         3.238691        -1.169092         1.156966
 H         4.934068         2.163145        -0.096727
 H         5.134023         0.991664         1.127162
 H         3.253492         1.094865        -2.019621
 H         1.837035        -0.500456        -2.392357
 H         2.696356        -1.683698        -1.304731
