19
Iteration:  1674charge 0 multiplicity 1
 C        -0.073355        -0.568792         0.257642
 C         1.407981        -0.193275        -0.040935
 C         2.529514        -0.366423         1.037816
 C         3.161971         0.810621         0.306760
 C         4.622208         1.201774         0.200735
 O         4.896737         0.194669        -0.958760
 C         3.376234         0.328011        -1.129159
 C         2.148261        -0.637376        -1.323854
 O         1.729143         1.375799         0.135075
 H        -0.469612         0.037971         1.077887
 H        -0.871596        -0.479236        -0.637257
 H        -0.114964        -1.637517         0.501364
 H         2.314818        -0.086101         2.076601
 H         3.147245        -1.312771         1.008292
 H         4.778508         2.129705        -0.285274
 H         5.360753         0.953645         1.120145
 H         3.229615         1.094155        -1.910047
 H         1.557057        -0.533903        -2.098579
 H         2.313226        -1.700535        -1.212729
