19
Iteration:  3326
 C         0.054546        -0.563907         0.357753
 C         1.424995        -0.102743         0.006636
 C         2.548526        -0.316297         1.007328
 C         3.111663         0.807357         0.184317
 C         4.548079         1.183383         0.177693
 O         4.805654         0.099009        -0.773098
 C         3.419199         0.254125        -1.177458
 C         2.146714        -0.642826        -1.320833
 O         1.747577         1.403336         0.004182
 H         0.002569        -0.481995         1.420501
 H        -0.790439        -0.142864        -0.104648
 H        -0.037501        -1.612568         0.143828
 H         2.090400        -0.061589         1.969714
 H         3.143924        -1.162434         0.888445
 H         4.712633         2.109835        -0.500914
 H         5.092582         1.312209         1.104420
 H         3.359188         1.172414        -1.853341
 H         1.536544        -0.339167        -2.131111
 H         2.324230        -1.777980        -1.289193
