19
Iteration:  4185charge 0 multiplicity 1
 C         0.007145        -0.597064         0.358163
 C         1.442672        -0.159751         0.078405
 C         2.536284        -0.280904         1.050466
 C         3.112781         0.779765         0.171114
 C         4.568771         1.230923         0.269287
 O         4.839735         0.105327        -0.828451
 C         3.333785         0.299680        -1.269856
 C         2.171952        -0.590244        -1.395344
 O         1.772168         1.350062         0.008248
 H        -0.213993        -0.538665         1.440497
 H        -0.835062        -0.172985        -0.259848
 H         0.059804        -1.748110         0.292682
 H         2.146779         0.234705         1.970372
 H         3.241920        -1.067784         1.206058
 H         4.727398         2.153263        -0.255237
 H         5.143032         1.075467         1.145007
 H         3.481942         1.181959        -1.948971
 H         1.410189        -0.466492        -2.214270
 H         2.298036        -1.644594        -1.233854
