19
Iteration:   156
 C        -0.013837        -0.516251         0.257876
 C         1.475161        -0.177769         0.082615
 C         2.716925        -0.350366         1.032410
 C         3.068493         0.859679         0.197789
 C         4.606343         1.202372         0.172412
 O         4.703836         0.112855        -0.796820
 C         3.346430         0.409784        -1.257111
 C         2.130866        -0.611891        -1.342888
 O         1.753950         1.252406         0.158566
 H        -0.619580        -0.089252         0.893440
 H        -0.447859        -0.421328        -0.799307
 H         0.002506        -1.610556         0.391897
 H         2.460338        -0.093593         2.046790
 H         3.255697        -1.249097         1.005865
 H         4.894148         2.197177        -0.327523
 H         5.250799         1.050748         0.975788
 H         3.307530         1.168101        -1.937653
 H         1.423456        -0.423188        -2.205010
 H         2.508650        -1.678277        -1.370392
