19
Iteration:  1805charge 0 multiplicity 1
 C         0.023162        -0.640497         0.288408
 C         1.390480        -0.095039         0.028605
 C         2.549720        -0.339545         0.952187
 C         3.167300         0.807159         0.216941
 C         4.639441         1.202757         0.170544
 O         4.833464         0.126087        -0.804737
 C         3.361439         0.354417        -1.190583
 C         2.073225        -0.583945        -1.301922
 O         1.735243         1.321449         0.104805
 H        -0.312686        -0.246412         1.221636
 H        -0.651955        -0.200301        -0.608008
 H         0.044072        -1.708257         0.338232
 H         2.230359         0.123834         1.880018
 H         2.965264        -1.330007         1.045980
 H         4.792576         2.107928        -0.367692
 H         5.345995         1.019768         1.101022
 H         3.336985         1.101055        -1.929118
 H         1.602120        -0.440790        -2.222393
 H         2.419099        -1.568293        -1.057893
