19
Iteration:  2226
 C        -0.042758        -0.434968         0.247911
 C         1.496688        -0.257799         0.063579
 C         2.724474        -0.321790         1.005108
 C         3.057200         0.829813         0.145871
 C         4.674981         1.162876         0.159503
 O         4.736937         0.098367        -0.826504
 C         3.318617         0.348906        -1.209165
 C         2.239058        -0.631878        -1.323999
 O         1.627201         1.304079         0.192321
 H        -0.275555         0.135501         1.061191
 H        -0.470139         0.053353        -0.594831
 H        -0.332559        -1.539775         0.226146
 H         2.290118         0.133756         1.935715
 H         3.385112        -1.224798         1.137990
 H         4.797592         2.220905        -0.022764
 H         5.139174         0.800414         1.011887
 H         3.162660         1.120935        -2.006832
 H         1.734730        -0.382159        -2.194411
 H         2.448074        -1.622958        -1.297823
