19
Iteration:  1533
 C         0.017219        -0.461854         0.248076
 C         1.464515        -0.173654         0.039830
 C         2.638154        -0.345930         0.969523
 C         3.116219         0.813573         0.202724
 C         4.580085         1.105530         0.251162
 O         4.795167         0.190319        -0.865268
 C         3.339378         0.387133        -1.297010
 C         2.229350        -0.696928        -1.310522
 O         1.622763         1.332241         0.201680
 H        -0.384917        -0.056051         1.088370
 H        -0.644237        -0.148086        -0.557855
 H        -0.125977        -1.442235         0.297316
 H         2.571726        -0.040865         2.025492
 H         3.285769        -1.245616         0.922694
 H         4.663625         2.110838        -0.061096
 H         5.334370         0.710794         1.065946
 H         3.156866         1.165781        -1.919283
 H         1.617658        -0.724241        -2.214787
 H         2.543541        -1.739935        -1.102245
