19
Iteration:   554
 C         0.028153        -0.554833         0.361738
 C         1.443038        -0.165086         0.045504
 C         2.671270        -0.412688         0.889541
 C         3.094892         0.908668         0.209511
 C         4.613579         1.158112         0.301333
 O         4.734129         0.156412        -0.815303
 C         3.372657         0.404814        -1.301522
 C         2.154165        -0.582229        -1.342966
 O         1.683660         1.282072         0.093341
 H        -0.192455        -0.446880         1.475235
 H        -0.718788         0.017875        -0.172856
 H        -0.224202        -1.638986         0.196388
 H         2.455994        -0.149568         1.944722
 H         3.270158        -1.321893         0.766694
 H         5.044722         2.098277         0.056745
 H         5.169395         0.728852         1.238284
 H         3.424352         1.138995        -2.197360
 H         1.470192        -0.320719        -2.191402
 H         2.406684        -1.716840        -1.352574
