19
Iteration:   890charge 0 multiplicity 1
 C        -0.001859        -0.633223         0.259444
 C         1.444936        -0.129974         0.012792
 C         2.644719        -0.318299         0.959678
 C         3.134085         0.822022         0.148548
 C         4.642445         1.265608         0.170915
 O         4.843410         0.082628        -0.755737
 C         3.369881         0.304683        -1.213781
 C         2.120913        -0.595887        -1.392234
 O         1.607600         1.377841         0.239418
 H        -0.227945        -0.429385         1.319490
 H        -0.805742        -0.209979        -0.364620
 H        -0.023763        -1.682612         0.161487
 H         2.392674        -0.117366         2.026407
 H         3.280978        -1.252931         0.930542
 H         4.827123         2.069970        -0.412314
 H         5.259171         1.163002         1.065796
 H         3.312280         0.971750        -2.035852
 H         1.627694        -0.267178        -2.281171
 H         2.205975        -1.706725        -1.315086
