19
Iteration:  1112
 C         0.062337        -0.599891         0.215320
 C         1.442561        -0.176313        -0.042110
 C         2.528541        -0.411710         1.039255
 C         3.127414         0.764443         0.250890
 C         4.609781         1.270068         0.134346
 O         4.877410         0.168944        -0.859250
 C         3.355569         0.275263        -1.123378
 C         2.071262        -0.595850        -1.332086
 O         1.725047         1.405046         0.200637
 H        -0.259905        -0.146444         1.082292
 H        -0.591183        -0.221104        -0.543773
 H        -0.074930        -1.724444         0.235824
 H         2.066102        -0.188005         2.054949
 H         3.154602        -1.365447         0.934410
 H         4.690139         2.240389        -0.365082
 H         5.369417         1.346608         1.099496
 H         3.243732         0.991084        -1.876445
 H         1.494315        -0.244891        -2.264035
 H         2.230831        -1.699961        -1.350273
