19
Iteration:   786charge 0 multiplicity 1
 C        -0.066634        -0.481037         0.291413
 C         1.450862        -0.257685         0.023745
 C         2.634817        -0.394205         1.039518
 C         3.109692         0.791861         0.155722
 C         4.559125         1.210986         0.190997
 O         4.787896         0.249994        -0.858871
 C         3.348737         0.303675        -1.228645
 C         2.224709        -0.647792        -1.327069
 O         1.755905         1.302189         0.172162
 H        -0.257954         0.073709         1.185249
 H        -0.715708        -0.030180        -0.522602
 H        -0.440955        -1.579050         0.433761
 H         2.466573         0.070583         2.015898
 H         3.222207        -1.301168         1.020249
 H         4.817379         2.295805        -0.145615
 H         5.110993         0.928903         1.131706
 H         3.237319         1.000097        -2.142586
 H         1.559584        -0.403942        -2.191015
 H         2.493982        -1.718344        -1.372715
