19
Iteration:   561
 C        -0.000902        -0.527970         0.362839
 C         1.466737        -0.130235         0.090412
 C         2.684228        -0.366369         0.841248
 C         3.075490         0.919513         0.159484
 C         4.589181         1.133058         0.333353
 O         4.706338         0.125455        -0.847852
 C         3.317079         0.442073        -1.215701
 C         2.231742        -0.612605        -1.354476
 O         1.699973         1.237489         0.098491
 H        -0.401620        -0.511974         1.511471
 H        -0.717823         0.016124        -0.262773
 H        -0.090749        -1.532692         0.050314
 H         2.711172        -0.161144         1.918506
 H         3.291917        -1.249785         0.652993
 H         5.067726         2.159236         0.074666
 H         5.108894         0.555565         1.149645
 H         3.243340         1.175252        -2.140091
 H         1.611214        -0.517710        -2.194938
 H         2.633382        -1.544710        -1.204729
