19
Iteration:  4482
 C        -0.071628        -0.570183         0.206104
 C         1.413431        -0.147323         0.075758
 C         2.573041        -0.297331         1.086977
 C         3.133611         0.785826         0.263231
 C         4.587982         1.271603         0.088173
 O         4.846363         0.160436        -0.827115
 C         3.388611         0.191572        -1.174355
 C         2.144572        -0.622942        -1.308021
 O         1.785752         1.345314         0.090929
 H        -0.406483        -0.194765         1.195447
 H        -0.621391        -0.043641        -0.568813
 H        -0.381836        -1.575444         0.202521
 H         2.369439        -0.224192         2.152499
 H         3.027537        -1.284938         1.003357
 H         4.674332         2.372058        -0.265902
 H         5.377309         1.040042         0.726288
 H         3.311224         0.999938        -1.942057
 H         1.457918        -0.330464        -2.134791
 H         2.376075        -1.702967        -1.269356
