19
Iteration:  4485
 C        -0.064300        -0.574099         0.179124
 C         1.386513        -0.138452         0.068361
 C         2.612215        -0.307756         1.097286
 C         3.132034         0.783082         0.245475
 C         4.615262         1.295890         0.094188
 O         4.839460         0.149499        -0.824172
 C         3.361533         0.212089        -1.160495
 C         2.120901        -0.621114        -1.302886
 O         1.783216         1.321989         0.094921
 H        -0.302755        -0.150731         1.291348
 H        -0.576434         0.067084        -0.582127
 H        -0.326095        -1.648791         0.180282
 H         2.224797        -0.117895         2.176598
 H         3.017765        -1.300979         1.117790
 H         4.600255         2.295327        -0.393406
 H         5.421711         1.032599         0.774643
 H         3.409410         1.006248        -1.962676
 H         1.531313        -0.288918        -2.088811
 H         2.399068        -1.752284        -1.324171
