19
Iteration:  1770
 C         0.045073        -0.619361         0.355315
 C         1.418199        -0.176511         0.024971
 C         2.598270        -0.308192         0.969452
 C         3.097302         0.854424         0.180552
 C         4.548787         1.168976         0.220173
 O         4.803927         0.136009        -0.820472
 C         3.385473         0.276245        -1.143854
 C         2.141375        -0.591361        -1.386338
 O         1.782058         1.389701         0.068236
 H        -0.243176        -0.483137         1.400696
 H        -0.659153         0.030666        -0.174606
 H        -0.242721        -1.648228         0.029069
 H         2.279231        -0.018273         1.959570
 H         3.003217        -1.307892         1.076758
 H         4.668197         2.247200        -0.071126
 H         5.136790         1.015713         1.133305
 H         3.359991         1.117544        -1.882461
 H         1.618593        -0.396026        -2.410843
 H         2.222542        -1.735377        -1.496737
