19
Iteration:   309
 C         0.084190        -0.618920         0.333233
 C         1.417115        -0.153060        -0.032235
 C         2.510083        -0.323241         0.969467
 C         3.150998         0.814770         0.274619
 C         4.666396         1.157352         0.157828
 O         4.913669         0.199285        -0.947111
 C         3.379437         0.311220        -1.088848
 C         2.011291        -0.606447        -1.306531
 O         1.689442         1.357579         0.134757
 H        -0.426281        -0.178764         1.129293
 H        -0.679264        -0.490468        -0.569053
 H         0.130417        -1.728504         0.465122
 H         2.138838        -0.015463         1.913640
 H         3.070094        -1.244703         0.981795
 H         4.767104         2.222183        -0.191436
 H         5.168877         0.913350         1.022841
 H         3.199453         1.146977        -1.799772
 H         1.433539        -0.401619        -2.174358
 H         2.247263        -1.626632        -1.299969
