19
Iteration:   202charge 0 multiplicity 1
 C         0.070412        -0.614650         0.313045
 C         1.450965        -0.121417         0.022375
 C         2.542237        -0.303064         1.020843
 C         3.123166         0.797754         0.211043
 C         4.641961         1.143358         0.226870
 O         4.746483         0.210356        -0.898191
 C         3.322287         0.318875        -1.151774
 C         2.130000        -0.649714        -1.340763
 O         1.761927         1.348046         0.062579
 H        -0.071656        -0.631734         1.375796
 H        -0.700607         0.016143        -0.205346
 H         0.012870        -1.618064        -0.049898
 H         2.259650         0.118349         1.984620
 H         3.131374        -1.227714         1.193924
 H         4.853616         2.193109        -0.079089
 H         5.291900         0.894359         1.121405
 H         3.139503         1.137206        -1.846528
 H         1.614313        -0.373970        -2.322520
 H         2.289265        -1.810231        -1.254857
