19
Iteration:   289charge 0 multiplicity 1
 C        -0.029836        -0.548017         0.247161
 C         1.441121        -0.179528         0.089076
 C         2.675112        -0.396872         1.070920
 C         3.147222         0.822666         0.158053
 C         4.650603         1.229078         0.180873
 O         4.721412         0.163166        -0.846777
 C         3.317979         0.364489        -1.292589
 C         2.195401        -0.620077        -1.334165
 O         1.690828         1.299868         0.187426
 H        -0.407555         0.054520         1.076310
 H        -0.692089        -0.245847        -0.619800
 H        -0.201786        -1.562852         0.492449
 H         2.469122        -0.026966         2.067824
 H         3.342311        -1.278625         1.088048
 H         4.966205         2.212273        -0.180447
 H         5.210051         0.874913         1.089308
 H         3.248027         1.087148        -2.024452
 H         1.580533        -0.364694        -2.249295
 H         2.442841        -1.737343        -1.447855
