19
Iteration:  3107
 C        -0.025765        -0.482001         0.298000
 C         1.417649        -0.172402         0.007426
 C         2.605118        -0.279629         1.019717
 C         3.155769         0.808242         0.068562
 C         4.716778         1.210602         0.281278
 O         4.775196         0.158985        -0.815449
 C         3.337075         0.351606        -1.251668
 C         2.149218        -0.677882        -1.294182
 O         1.687529         1.240743         0.100649
 H        -0.430435         0.117637         1.146119
 H        -0.711461        -0.214863        -0.572579
 H        -0.044993        -1.626553         0.595484
 H         2.501569         0.059834         2.026766
 H         3.203522        -1.196398         1.116233
 H         5.095000         2.227922        -0.028536
 H         4.996265         0.909032         1.394896
 H         3.214191         0.889671        -2.216477
 H         1.646030        -0.394371        -2.261938
 H         2.184190        -1.788795        -1.144559
