19
Iteration:  4393charge 0 multiplicity 1
 C         0.054258        -0.577236         0.290330
 C         1.471201        -0.085993         0.033481
 C         2.564029        -0.383490         0.994857
 C         3.072850         0.884361         0.181327
 C         4.625162         1.234022         0.097605
 O         4.859087         0.096635        -0.686593
 C         3.326877         0.241274        -1.206623
 C         2.058802        -0.639748        -1.333885
 O         1.727250         1.391733         0.086848
 H        -0.260435        -0.347728         1.285775
 H        -0.527230        -0.310657        -0.621661
 H         0.240347        -1.687668         0.326509
 H         2.372278         0.047690         1.979990
 H         2.978768        -1.420328         1.122339
 H         4.686745         2.296650        -0.367598
 H         5.301459         1.034237         0.943553
 H         3.476280         1.028268        -1.997221
 H         1.344576        -0.357331        -2.256827
 H         2.255579        -1.690053        -1.327320
