19
Iteration:  2324
 C        -0.025247        -0.522432         0.253341
 C         1.505685        -0.216754         0.022167
 C         2.706624        -0.306166         0.956430
 C         3.107290         0.900134         0.189403
 C         4.594309         1.229294         0.163479
 O         4.655439         0.032291        -0.822056
 C         3.333860         0.294256        -1.139019
 C         2.238031        -0.651008        -1.301048
 O         1.680809         1.375305         0.165786
 H        -0.279681         0.005660         1.077533
 H        -0.482741        -0.127698        -0.592757
 H        -0.175557        -1.639261         0.314832
 H         2.575489        -0.028974         2.029567
 H         3.383377        -1.189494         0.805124
 H         4.964655         2.174914        -0.213042
 H         5.155775         0.826547         1.057863
 H         3.215326         1.071961        -2.016158
 H         1.605651        -0.222377        -2.042243
 H         2.451472        -1.641121        -1.480507
