19
Iteration:  4732
 C         0.028186        -0.471434         0.244680
 C         1.443599        -0.201642         0.024854
 C         2.711866        -0.364554         0.971617
 C         3.079344         0.863974         0.185780
 C         4.624583         1.250247         0.118861
 O         4.783968         0.106343        -0.740048
 C         3.364632         0.320736        -1.160241
 C         2.086398        -0.676658        -1.278900
 O         1.658180         1.294457         0.131840
 H        -0.465488        -0.299331         1.292458
 H        -0.411003         0.221735        -0.475260
 H         0.022383        -1.492081        -0.204513
 H         2.424747         0.236428         1.866573
 H         3.401458        -1.177816         1.008378
 H         4.980054         2.162106        -0.270334
 H         5.087609         1.034334         1.079337
 H         3.440189         0.969374        -2.033727
 H         1.508578        -0.486795        -2.187291
 H         2.197364        -1.750620        -1.444283
