19
Iteration:  5000charge 0 multiplicity 1
 C         0.040628        -0.492939         0.243137
 C         1.455180        -0.157050         0.045005
 C         2.664166        -0.355690         0.980754
 C         3.102419         0.877492         0.182494
 C         4.584223         1.185165         0.125929
 O         4.765605         0.063894        -0.724010
 C         3.345318         0.292126        -1.213697
 C         2.175986        -0.625214        -1.353237
 O         1.645687         1.360343         0.183037
 H        -0.539497         0.184140         0.898278
 H        -0.401159        -0.568608        -0.806333
 H        -0.097342        -1.597243         0.505287
 H         2.667062         0.030314         1.984192
 H         3.322906        -1.241000         1.259531
 H         4.831190         2.102704        -0.455529
 H         5.187301         1.185561         1.007213
 H         3.403571         1.030373        -1.990452
 H         1.435439        -0.482431        -2.252775
 H         2.516911        -1.636889        -1.438219
