19
Iteration:  1843charge 0 multiplicity 1
 C         0.024696        -0.461174         0.189087
 C         1.489119        -0.360893         0.019096
 C         2.676205        -0.332752         0.958153
 C         3.080889         0.886841         0.171650
 C         4.605421         1.187343         0.187294
 O         4.697629         0.155349        -0.795541
 C         3.320406         0.337642        -1.214688
 C         2.184142        -0.697481        -1.312249
 O         1.724992         1.362330         0.251493
 H        -0.410745         0.364703         0.893832
 H        -0.393335        -0.283815        -0.785727
 H        -0.517223        -1.425066         0.538705
 H         2.400269         0.071307         1.969020
 H         3.458957        -1.160922         1.021410
 H         5.065199         2.193232        -0.220474
 H         5.126683         1.014878         1.090879
 H         3.332474         1.131913        -2.111791
 H         1.422640        -0.658935        -2.166322
 H         2.507220        -1.765048        -1.326030
