19
Iteration:  3091charge 0 multiplicity 1
 C        -0.028381        -0.474813         0.293764
 C         1.463032        -0.126808         0.086724
 C         2.659798        -0.329631         0.969958
 C         3.083336         0.868492         0.153341
 C         4.574573         1.136801         0.247854
 O         4.843767         0.177883        -0.844990
 C         3.383712         0.258338        -1.272174
 C         2.189454        -0.727832        -1.330692
 O         1.623830         1.362057         0.155599
 H        -0.346880         0.264375         1.012924
 H        -0.543088        -0.420597        -0.640613
 H        -0.232300        -1.458977         0.574997
 H         2.365245         0.061483         1.985889
 H         3.188889        -1.296484         0.940501
 H         4.958882         2.118815        -0.047594
 H         5.042139         0.733572         1.060301
 H         3.433993         1.076053        -2.020259
 H         1.514230        -0.739911        -2.216663
 H         2.556700        -1.745914        -1.231444
