19
Iteration:  1074
 C         0.021817        -0.563043         0.307383
 C         1.448229        -0.200818        -0.018241
 C         2.687474        -0.361901         0.961270
 C         3.104583         0.887569         0.177966
 C         4.575381         1.228122         0.300524
 O         4.789609         0.097566        -0.798591
 C         3.323109         0.336442        -1.241556
 C         2.180559        -0.628709        -1.405312
 O         1.642900         1.339394         0.159873
 H        -0.195837        -0.383697         1.462645
 H        -0.640745         0.142005        -0.315994
 H        -0.276768        -1.589008         0.133529
 H         2.514219        -0.077340         1.974075
 H         3.348076        -1.197236         0.974127
 H         4.938490         2.169608        -0.207504
 H         5.100820         1.027603         1.140313
 H         3.436483         1.167577        -2.002543
 H         1.719029        -0.447675        -2.337693
 H         2.364805        -1.694341        -1.411997
