19
Iteration:  1911charge 0 multiplicity 1
 C        -0.016084        -0.534518         0.308357
 C         1.472613        -0.187681         0.003532
 C         2.594014        -0.315435         1.063521
 C         3.113272         0.767613         0.148656
 C         4.596838         1.189222         0.220852
 O         4.813037         0.172149        -0.829559
 C         3.378663         0.304333        -1.238834
 C         2.139817        -0.609101        -1.353398
 O         1.694392         1.317180         0.114489
 H        -0.174844        -0.355199         1.369157
 H        -0.551171         0.124039        -0.344839
 H        -0.122489        -1.631050         0.078116
 H         2.187141         0.116228         1.982445
 H         3.173621        -1.250358         1.262326
 H         4.792727         2.262022        -0.119419
 H         5.213644         1.003695         1.059873
 H         3.366305         1.277014        -1.881720
 H         1.615313        -0.546697        -2.373808
 H         2.358120        -1.721707        -1.253091
