19
Iteration:  4140
 C        -0.071577        -0.517314         0.192859
 C         1.470355        -0.177116         0.026889
 C         2.724993        -0.381212         1.020462
 C         3.140593         0.871938         0.191100
 C         4.591299         1.292244         0.127432
 O         4.746544         0.066584        -0.792852
 C         3.306896         0.405069        -1.177379
 C         2.171238        -0.738186        -1.234422
 O         1.711507         1.335637         0.140481
 H        -0.526564         0.016945         1.089714
 H        -0.484199        -0.062900        -0.720673
 H        -0.360511        -1.583278         0.236688
 H         2.599943        -0.117400         2.120113
 H         3.118275        -1.311239         0.778084
 H         4.763932         2.174672        -0.405406
 H         5.188584         1.158284         1.037809
 H         3.361047         1.156525        -2.010882
 H         1.649250        -0.720611        -2.156005
 H         2.680998        -1.730347        -1.117191
