19
Iteration:  1466charge 0 multiplicity 1
 C         0.080825        -0.517452         0.210380
 C         1.435641        -0.120887         0.038038
 C         2.611175        -0.396925         0.934584
 C         3.131138         0.798720         0.180289
 C         4.622161         1.257377         0.165467
 O         4.739095         0.153775        -0.822900
 C         3.356186         0.333110        -1.186639
 C         2.157722        -0.651734        -1.294161
 O         1.679427         1.303245         0.209966
 H        -0.362038         0.049828         1.082348
 H        -0.612278        -0.326261        -0.603738
 H         0.054147        -1.535238         0.324030
 H         2.508317        -0.085183         2.028415
 H         3.073814        -1.412825         0.988167
 H         4.860122         2.246744        -0.219100
 H         5.260403         0.928729         1.157928
 H         3.335581         1.010626        -1.974806
 H         1.451013        -0.360628        -2.086697
 H         2.321672        -1.770887        -1.290804
