19
Iteration:  3159charge 0 multiplicity 1
 C         0.027811        -0.598126         0.273881
 C         1.415013        -0.107349         0.020707
 C         2.530232        -0.328567         0.977594
 C         3.162352         0.855904         0.150047
 C         4.646482         1.273826         0.080550
 O         4.794303         0.057468        -0.681675
 C         3.347558         0.357701        -1.215775
 C         2.083652        -0.656161        -1.300491
 O         1.772416         1.332816         0.158669
 H        -0.120752        -0.367658         1.277106
 H        -0.680577        -0.100734        -0.399478
 H        -0.117800        -1.610342        -0.082172
 H         2.288742         0.066202         1.953747
 H         3.143467        -1.263020         1.160765
 H         4.706305         2.226389        -0.513096
 H         5.130316         1.117345         0.958916
 H         3.381572         0.993643        -2.198715
 H         1.778906        -0.669893        -2.421858
 H         2.193916        -1.719982        -1.024762
