19
Iteration:  1985
 C        -0.038300        -0.594050         0.313043
 C         1.392241        -0.108791         0.016609
 C         2.509041        -0.444648         1.079950
 C         3.139182         0.774114         0.287359
 C         4.577281         1.264857         0.121638
 O         4.899249         0.133926        -0.856196
 C         3.418649         0.320260        -1.174463
 C         2.115864        -0.556162        -1.358925
 O         1.756869         1.324625         0.054750
 H        -0.287363        -0.096960         1.378741
 H        -0.607409        -0.266416        -0.545915
 H        -0.075536        -1.804653         0.398860
 H         2.278779         0.140157         1.993964
 H         3.051638        -1.465841         1.166617
 H         4.681756         2.380368        -0.243986
 H         5.252208         1.230343         0.959432
 H         3.539753         1.033962        -1.960890
 H         1.485291        -0.256651        -2.186698
 H         2.147291        -1.618092        -1.389214
