19
Iteration:  4320charge 0 multiplicity 1
 C        -0.029171        -0.468416         0.315743
 C         1.451275        -0.236163         0.019776
 C         2.595686        -0.251841         1.060684
 C         3.129529         0.777154         0.206055
 C         4.581254         1.183007         0.211283
 O         4.787903         0.196456        -0.863204
 C         3.349895         0.298339        -1.193334
 C         2.173055        -0.705484        -1.306132
 O         1.722220         1.330323         0.032319
 H        -0.205499        -0.241336         1.407895
 H        -0.612472         0.038269        -0.467671
 H        -0.201239        -1.544284         0.281440
 H         2.229549         0.032135         2.019879
 H         3.228087        -1.133757         1.138593
 H         4.870712         2.180020        -0.106973
 H         5.049078         0.854865         1.127253
 H         3.266832         0.946799        -2.086231
 H         1.869594        -0.549530        -2.299038
 H         2.649932        -1.687092        -1.320880
