19
Iteration:  4860
 C        -0.050993        -0.560733         0.267031
 C         1.442547        -0.143319        -0.061379
 C         2.584473        -0.378571         1.002422
 C         3.124140         0.817148         0.209209
 C         4.570972         1.320948         0.077458
 O         4.770213         0.060129        -0.781826
 C         3.406936         0.266173        -1.104704
 C         2.139012        -0.648437        -1.327078
 O         1.786394         1.411654         0.184815
 H        -0.271437        -0.466167         1.236467
 H        -0.725961        -0.162488        -0.474252
 H         0.034007        -1.645631        -0.024764
 H         2.433907        -0.073388         2.000326
 H         3.104361        -1.369105         1.099233
 H         4.703866         2.210368        -0.561759
 H         5.310102         1.303054         0.965386
 H         3.349148         1.133594        -1.828015
 H         1.734159        -0.389988        -2.354765
 H         2.144948        -1.684113        -1.083618
