19
Iteration:  4155
 C         0.019838        -0.465760         0.221247
 C         1.439916        -0.267432         0.072892
 C         2.620437        -0.354189         0.960822
 C         3.053570         0.941087         0.215881
 C         4.727176         1.223998         0.128541
 O         4.751118         0.133046        -0.780358
 C         3.350565         0.286667        -1.184432
 C         2.206753        -0.639957        -1.255978
 O         1.632924         1.283834         0.105431
 H        -0.284892        -0.142121         1.213913
 H        -0.645603        -0.034879        -0.586142
 H        -0.205416        -1.583126         0.268549
 H         2.305523        -0.235193         1.970952
 H         3.496843        -1.041264         1.012870
 H         5.036892         2.226529        -0.420691
 H         5.398076         1.108202         0.963845
 H         3.267377         1.054968        -2.030751
 H         1.481796        -0.551066        -2.194180
 H         2.308535        -1.684584        -1.131458
