19
Iteration:  4177charge 0 multiplicity 1
 C         0.054370        -0.582785         0.325406
 C         1.403928        -0.154630         0.052225
 C         2.589500        -0.269237         1.084291
 C         3.189608         0.851713         0.197241
 C         4.565740         1.222491         0.206671
 O         4.836864         0.081379        -0.823351
 C         3.362479         0.329155        -1.232054
 C         2.146998        -0.664398        -1.399366
 O         1.676822         1.319295         0.043068
 H        -0.147286        -0.287515         1.366983
 H        -0.711400        -0.058009        -0.338896
 H        -0.157804        -1.694544         0.230177
 H         2.393289         0.125749         2.048829
 H         3.049910        -1.274522         1.344166
 H         4.823469         2.299811        -0.136433
 H         5.075008         1.070886         1.142499
 H         3.197799         1.188137        -1.965842
 H         1.582845        -0.355301        -2.405386
 H         2.254136        -1.734067        -1.445768
