19
Iteration:   331charge 0 multiplicity 1
 C         0.010793        -0.678872         0.394416
 C         1.405753        -0.079148         0.018807
 C         2.528459        -0.401400         1.094771
 C         3.123733         0.763181         0.208234
 C         4.660761         1.181375         0.255185
 O         4.760329         0.197774        -0.903470
 C         3.369491         0.370194        -1.209409
 C         2.151255        -0.591431        -1.396087
 O         1.814077         1.406084         0.026025
 H        -0.424927        -0.413586         1.340977
 H        -0.935482        -0.620333        -0.322343
 H         0.276400        -1.769611         0.404452
 H         2.376720        -0.045813         2.086238
 H         2.776265        -1.443801         0.997630
 H         4.769679         2.205245        -0.206165
 H         5.283928         0.983766         1.066336
 H         3.218773         1.194354        -2.006688
 H         1.546911        -0.394754        -2.250965
 H         2.251190        -1.633276        -1.293897
