19
Iteration:  4789
 C         0.040048        -0.538854         0.291802
 C         1.423302        -0.141852        -0.029689
 C         2.572373        -0.404595         0.942991
 C         3.075119         0.807635         0.239747
 C         4.622836         1.209209         0.233119
 O         4.810098         0.190377        -0.880177
 C         3.418610         0.308143        -1.180106
 C         2.081439        -0.733107        -1.303828
 O         1.723205         1.419622         0.104794
 H        -0.241056         0.304099         1.076088
 H        -0.529907        -0.552615        -0.645477
 H         0.064078        -1.497405         0.771477
 H         2.341628        -0.025708         2.001519
 H         3.018006        -1.328527         1.163244
 H         4.890940         2.252451         0.075398
 H         5.139413         0.828146         1.032648
 H         3.398033         1.038843        -1.965386
 H         1.461290        -0.575044        -2.162347
 H         2.446302        -1.796495        -1.103504
