19
Iteration:  4988charge 0 multiplicity 1
 C        -0.016822        -0.561022         0.162727
 C         1.444776        -0.138695         0.109543
 C         2.639002        -0.335339         1.057085
 C         3.106770         0.815437         0.088612
 C         4.596243         1.275356         0.178072
 O         4.768296         0.063691        -0.783821
 C         3.427167         0.308342        -1.232793
 C         2.138715        -0.600941        -1.252961
 O         1.725931         1.280507         0.159396
 H        -0.527473         0.206390         0.844475
 H        -0.558536        -0.442890        -0.811876
 H        -0.092358        -1.494247         0.711979
 H         2.437767         0.141118         2.006464
 H         3.174293        -1.297137         0.775656
 H         4.876033         2.182497        -0.441286
 H         5.097341         1.197565         1.100025
 H         3.438840         1.098935        -1.981727
 H         1.440583        -0.111391        -2.031250
 H         2.105591        -1.671126        -1.327021
