19
Iteration:  1824
 C         0.043061        -0.502672         0.197904
 C         1.491902        -0.194367         0.045073
 C         2.719637        -0.382143         1.087358
 C         3.073734         0.904274         0.180713
 C         4.609901         1.188700         0.192431
 O         4.693336         0.064089        -0.826352
 C         3.317736         0.367233        -1.199672
 C         2.211782        -0.639216        -1.315335
 O         1.683424         1.359332         0.117404
 H        -0.438359         0.008181         1.021736
 H        -0.546673        -0.323353        -0.656475
 H        -0.108713        -1.583844         0.427321
 H         2.484395        -0.220784         2.131178
 H         3.287870        -1.293174         0.888596
 H         4.797169         2.248918        -0.121158
 H         5.129346         0.928521         1.103375
 H         3.117853         1.145533        -1.971245
 H         1.483923        -0.341404        -2.234884
 H         2.478094        -1.762246        -1.333020
