19
Iteration:  4777charge 0 multiplicity 1
 C         0.041133        -0.559987         0.260955
 C         1.444810        -0.093818        -0.039294
 C         2.521166        -0.360020         1.015143
 C         3.180156         0.805304         0.195733
 C         4.592027         1.221788         0.216406
 O         4.811681         0.160969        -0.837751
 C         3.289317         0.293766        -1.181576
 C         2.147658        -0.641008        -1.302278
 O         1.798358         1.325973         0.114202
 H        -0.431139         0.160902         1.116627
 H        -0.774831        -0.520752        -0.451251
 H         0.044891        -1.556323         0.724972
 H         2.076894        -0.164500         2.046965
 H         3.025392        -1.241081         0.773331
 H         4.741407         2.146408        -0.322444
 H         5.185835         1.132281         1.080358
 H         3.114234         1.126961        -1.852121
 H         1.688839        -0.641355        -2.265030
 H         2.307185        -1.741456        -1.085588
