19
Iteration:   476charge 0 multiplicity 1
 C         0.015714        -0.485691         0.184272
 C         1.499678        -0.203265        -0.020100
 C         2.759976        -0.325454         1.009159
 C         3.109394         0.862696         0.172063
 C         4.628284         1.150212         0.256141
 O         4.681170         0.195301        -0.886677
 C         3.306362         0.353622        -1.271289
 C         2.164555        -0.677175        -1.320286
 O         1.649159         1.274986         0.292703
 H        -0.463123         0.196664         1.086775
 H        -0.603711        -0.276180        -0.666405
 H        -0.114636        -1.518903         0.399136
 H         2.496320        -0.033339         2.044864
 H         3.564674        -1.091404         1.007102
 H         5.030906         2.092546         0.005634
 H         5.214803         0.634696         1.161611
 H         3.232415         1.254274        -1.999134
 H         1.576323        -0.597945        -2.259385
 H         2.294773        -1.801234        -1.222630
