19
Iteration:  2814
 C        -0.011923        -0.472789         0.322800
 C         1.456278        -0.256423        -0.047198
 C         2.716767        -0.295306         0.987969
 C         3.134614         0.898359         0.248247
 C         4.590856         1.265506         0.153107
 O         4.710134         0.058111        -0.753079
 C         3.325075         0.320568        -1.149735
 C         2.199428        -0.679753        -1.339336
 O         1.665459         1.312553         0.062489
 H        -0.006645        -0.255078         1.340183
 H        -0.478537         0.169394        -0.410233
 H        -0.316474        -1.516634         0.046028
 H         2.324227         0.077246         1.960825
 H         3.198966        -1.353785         0.960604
 H         4.867278         2.198432        -0.402689
 H         5.348223         1.049072         1.053106
 H         3.372012         1.102411        -2.030606
 H         1.625789        -0.540728        -2.285993
 H         2.443731        -1.743569        -1.116868
