19
Iteration:  2734
 C         0.004221        -0.547520         0.330602
 C         1.445866        -0.155653         0.016017
 C         2.518092        -0.310332         1.031638
 C         3.110207         0.746111         0.209142
 C         4.579219         1.178893         0.241138
 O         4.771986         0.147011        -0.891455
 C         3.391785         0.301211        -1.226374
 C         2.270571        -0.644891        -1.362405
 O         1.716481         1.385732         0.095857
 H        -0.402541         0.162427         1.131454
 H        -0.676571        -0.335985        -0.486980
 H         0.079127        -1.568438         0.657522
 H         2.194072         0.119330         1.998524
 H         3.178414        -1.259597         1.305624
 H         4.836576         2.125653        -0.288573
 H         5.286068         0.979296         1.095213
 H         3.144120         1.144276        -1.899118
 H         1.584900        -0.530268        -2.218185
 H         2.448660        -1.692371        -1.275758
