19
Iteration:   801
 C        -0.034480        -0.521871         0.327176
 C         1.399702        -0.183336         0.021304
 C         2.590260        -0.421214         0.987276
 C         3.159365         0.731777         0.238873
 C         4.562707         1.222250         0.251825
 O         4.858221         0.301912        -0.900027
 C         3.325158         0.346114        -1.179296
 C         2.054065        -0.732295        -1.343832
 O         1.868965         1.349501         0.047885
 H        -0.495279        -0.070374         1.287495
 H        -0.617967        -0.241320        -0.486037
 H        -0.052434        -1.539013         0.392237
 H         2.134091        -0.128293         1.936344
 H         3.142672        -1.372066         1.134446
 H         4.610959         2.208472        -0.086405
 H         5.177243         1.052069         1.043127
 H         3.192571         1.300410        -1.636373
 H         1.580504        -0.707868        -2.312434
 H         2.347323        -1.735276        -1.112624
