19
Iteration:  2612charge 0 multiplicity 1
 C         0.029665        -0.492394         0.274179
 C         1.496144        -0.184458         0.010030
 C         2.652750        -0.273178         0.970949
 C         3.099484         0.834405         0.086027
 C         4.645351         1.138686         0.284991
 O         4.720711         0.158557        -0.816067
 C         3.335602         0.334681        -1.304650
 C         2.180775        -0.701213        -1.259974
 O         1.646591         1.306631         0.123350
 H        -0.156633        -0.418978         1.407623
 H        -0.470985         0.306647        -0.307645
 H        -0.108428        -1.495141         0.065925
 H         2.311979         0.023954         2.040906
 H         3.220594        -1.301933         1.170205
 H         5.053799         2.208479         0.040345
 H         5.074345         0.888893         1.232103
 H         3.357776         1.189240        -2.045545
 H         1.504470        -0.453625        -2.064886
 H         2.381522        -1.787971        -1.028857
