19
Iteration:  3065charge 0 multiplicity 1
 C        -0.022000        -0.541047         0.239612
 C         1.466942        -0.162025         0.008649
 C         2.571636        -0.399789         0.998385
 C         3.153040         0.812278         0.275392
 C         4.595937         1.297664         0.175511
 O         4.702490         0.135439        -0.835397
 C         3.333374         0.307912        -1.165443
 C         2.171661        -0.707776        -1.297627
 O         1.814433         1.397096         0.078486
 H        -0.147727         0.275395         1.012963
 H        -0.730660        -0.436490        -0.627360
 H        -0.176777        -1.610377         0.612567
 H         2.241459        -0.073471         2.024670
 H         3.044802        -1.409156         1.067632
 H         4.817832         2.185094        -0.359072
 H         5.390827         0.965719         0.969365
 H         3.216840         1.155632        -1.800270
 H         1.599226        -0.626640        -2.193284
 H         2.553648        -1.747541        -1.238700
