19
Iteration:  4660
 C        -0.032631        -0.516153         0.281023
 C         1.448973        -0.170861         0.050745
 C         2.604987        -0.379479         1.061016
 C         3.136590         0.835247         0.199812
 C         4.628313         1.225501         0.174476
 O         4.815509         0.107844        -0.878253
 C         3.399181         0.295551        -1.138380
 C         2.138526        -0.579603        -1.270049
 O         1.705010         1.306720         0.004658
 H        -0.316294        -0.130442         1.276155
 H        -0.711688        -0.093470        -0.457314
 H         0.018652        -1.566658         0.291065
 H         2.064311         0.048052         1.934052
 H         3.017511        -1.394173         1.202128
 H         4.692094         2.292847        -0.298357
 H         5.244192         1.078104         1.089231
 H         3.287490         1.227458        -1.732994
 H         1.526095        -0.402086        -2.129843
 H         2.294306        -1.736083        -1.332969
