19
Iteration:   781charge 0 multiplicity 1
 C        -0.031918        -0.462390         0.273318
 C         1.452758        -0.260611         0.040184
 C         2.636773        -0.390495         1.041353
 C         3.128698         0.825663         0.146147
 C         4.546094         1.251578         0.202382
 O         4.791023         0.199039        -0.868689
 C         3.373072         0.340396        -1.248070
 C         2.225426        -0.674176        -1.329251
 O         1.682482         1.288233         0.196731
 H        -0.278249         0.103426         1.232785
 H        -0.652261        -0.046241        -0.510687
 H        -0.333843        -1.455813         0.369640
 H         2.468569         0.000379         2.059998
 H         3.206526        -1.362664         0.949054
 H         4.869928         2.187837        -0.159066
 H         5.187102         0.872255         1.059807
 H         3.328121         0.986522        -2.062201
 H         1.579843        -0.398954        -2.143705
 H         2.404226        -1.761171        -1.383704
