19
Iteration:  4447
 C         0.033467        -0.449425         0.317754
 C         1.502532        -0.167522        -0.050518
 C         2.544696        -0.326568         0.995369
 C         3.165738         0.816493         0.190590
 C         4.609473         1.198683         0.237669
 O         4.735548         0.184652        -0.800440
 C         3.309981         0.281654        -1.287933
 C         2.185818        -0.702001        -1.302304
 O         1.722754         1.298883         0.116894
 H        -0.218106         0.220320         1.041907
 H        -0.656592        -0.199140        -0.502635
 H        -0.037495        -1.508607         0.642029
 H         2.372527         0.135120         1.935955
 H         3.159376        -1.272859         0.845349
 H         4.830433         2.325833         0.015198
 H         5.076352         0.751601         1.163654
 H         3.250668         1.105891        -2.007853
 H         1.535858        -0.949501        -2.242848
 H         2.460380        -1.678159        -0.991775
