19
Iteration:  1979charge 0 multiplicity 1
 C        -0.007965        -0.602588         0.308704
 C         1.381096        -0.111063         0.042624
 C         2.511775        -0.455298         1.127052
 C         3.118974         0.776957         0.224860
 C         4.581023         1.316255         0.111145
 O         4.861458         0.112324        -0.838988
 C         3.449764         0.302456        -1.193540
 C         2.137739        -0.541608        -1.371676
 O         1.747922         1.331500         0.080409
 H        -0.233496        -0.239341         1.202360
 H        -0.598789        -0.138459        -0.534450
 H         0.081429        -1.607536         0.308477
 H         2.301326        -0.017292         2.111477
 H         2.912054        -1.401278         1.247590
 H         4.821105         2.255568        -0.332658
 H         5.183272         1.104007         1.050083
 H         3.376900         1.076821        -2.068644
 H         1.504308        -0.177925        -2.238596
 H         2.163731        -1.696461        -1.425651
