19
Iteration:  4795
 C         0.047637        -0.471124         0.332032
 C         1.406461        -0.228306        -0.013927
 C         2.590801        -0.392896         0.978412
 C         3.059093         0.826810         0.196646
 C         4.648327         1.160782         0.242131
 O         4.823706         0.220553        -0.876039
 C         3.412203         0.317917        -1.203085
 C         2.133383        -0.741015        -1.317387
 O         1.694733         1.434566         0.096278
 H        -0.604628         0.118999         0.962836
 H        -0.514159        -0.560582        -0.605711
 H        -0.047889        -1.540741         0.730021
 H         2.420239         0.030631         1.948846
 H         3.121766        -1.417026         1.142459
 H         4.893482         2.224848         0.030726
 H         5.083978         0.662321         1.258347
 H         3.339525         1.052466        -2.072628
 H         1.452616        -0.458223        -2.174055
 H         2.314976        -1.771096        -1.155370
