19
Iteration:  4895
 C         0.030681        -0.479694         0.228079
 C         1.414651        -0.211452         0.084378
 C         2.693438        -0.380530         1.044350
 C         3.087668         0.877522         0.086011
 C         4.627577         1.223358         0.204218
 O         4.801111         0.146395        -0.790654
 C         3.384016         0.246953        -1.191193
 C         2.087800        -0.650634        -1.268324
 O         1.668544         1.327935         0.075555
 H        -0.281606        -0.465726         1.178443
 H        -0.514247         0.263422        -0.300286
 H        -0.113469        -1.488941        -0.168607
 H         2.386474         0.086253         1.990601
 H         3.286657        -1.269474         1.054046
 H         5.014120         2.113486        -0.299780
 H         5.102285         1.088894         1.268453
 H         3.226806         1.125350        -1.876336
 H         1.636248        -0.331558        -2.203012
 H         2.158232        -1.737779        -1.279113
