19
Iteration:   678
 C        -0.000658        -0.523011         0.385691
 C         1.463831        -0.245354         0.005458
 C         2.697504        -0.371605         0.917749
 C         3.067130         0.883288         0.155224
 C         4.545727         1.108344         0.233113
 O         4.742492         0.111058        -0.857052
 C         3.340028         0.459643        -1.202239
 C         2.256139        -0.599858        -1.332985
 O         1.687507         1.310658         0.103553
 H        -0.183409         0.027477         1.234666
 H        -0.659464        -0.114789        -0.410051
 H        -0.348886        -1.570283         0.590405
 H         2.542051        -0.079937         1.973680
 H         3.390683        -1.218185         0.886145
 H         4.834379         2.134579         0.049836
 H         4.939761         0.795458         1.129513
 H         3.354447         1.359710        -1.831731
 H         1.464194        -0.513809        -2.139162
 H         2.674436        -1.625020        -1.205405
