19
Iteration:  1063
 C         0.093759        -0.494341         0.270215
 C         1.509888        -0.269127        -0.058005
 C         2.677639        -0.331736         0.876778
 C         3.030831         0.949911         0.164091
 C         4.605129         1.131098         0.236290
 O         4.782960         0.140401        -0.759797
 C         3.369033         0.379710        -1.187444
 C         2.142986        -0.695316        -1.337722
 O         1.624899         1.330614         0.193603
 H         0.077935        -0.287312         1.480747
 H        -0.779947         0.108919        -0.180389
 H        -0.107428        -1.538676         0.073816
 H         2.308497        -0.087350         1.833422
 H         3.259515        -1.203463         0.765657
 H         4.894266         2.219607         0.065062
 H         4.915617         0.868539         1.145734
 H         3.280232         0.967682        -2.175304
 H         1.434780        -0.397438        -2.042130
 H         2.366416        -1.746328        -1.304757
