19
Iteration:  2599charge 0 multiplicity 1
 C         0.058719        -0.505822         0.268353
 C         1.447852        -0.190833         0.007082
 C         2.591851        -0.349794         0.972114
 C         3.113371         0.946180         0.126271
 C         4.580027         1.189244         0.230674
 O         4.762766         0.149999        -0.828669
 C         3.345445         0.318267        -1.225690
 C         2.152373        -0.683217        -1.281247
 O         1.746009         1.327942         0.188453
 H        -0.218465        -0.214151         1.303624
 H        -0.763094        -0.007047        -0.353273
 H        -0.271888        -1.542005         0.010338
 H         2.293920         0.229379         1.922994
 H         3.137316        -1.391969         1.023899
 H         5.061671         2.156516        -0.119674
 H         4.992422         0.733025         1.091721
 H         3.267455         0.820295        -2.191866
 H         1.671280        -0.864273        -2.268564
 H         2.541200        -1.766922        -1.171439
