19
Iteration:  1255charge 0 multiplicity 1
 C        -0.002220        -0.552664         0.277202
 C         1.466151        -0.219579         0.023043
 C         2.721240        -0.337982         1.016071
 C         3.074513         0.873577         0.142334
 C         4.612688         1.171637         0.148470
 O         4.816929         0.033719        -0.724411
 C         3.285026         0.474184        -1.273113
 C         2.169017        -0.591906        -1.339595
 O         1.610839         1.312802         0.144861
 H        -0.078158        -0.154976         1.259801
 H        -0.557534         0.097244        -0.342775
 H        -0.259807        -1.690588         0.153315
 H         2.594083        -0.021543         2.083221
 H         3.343841        -1.310665         0.893503
 H         4.825463         2.124136        -0.105301
 H         5.075369         1.010245         1.178212
 H         3.522484         1.188665        -2.000664
 H         1.443680        -0.542707        -2.206715
 H         2.650008        -1.571976        -1.398713
