19
Iteration:  1245charge 0 multiplicity 1
 C         0.065920        -0.499354         0.262266
 C         1.501254        -0.222835         0.004729
 C         2.683347        -0.283776         0.939730
 C         3.081258         0.931185         0.145823
 C         4.598024         1.224300         0.148421
 O         4.794207         0.036359        -0.730245
 C         3.294049         0.350116        -1.223196
 C         2.173956        -0.594509        -1.352255
 O         1.602000         1.270574         0.227920
 H        -0.251296        -0.344267         1.332665
 H        -0.603781        -0.005379        -0.343389
 H        -0.141886        -1.607619         0.059858
 H         2.257013        -0.123410         1.953740
 H         3.352602        -1.244222         0.836993
 H         5.031978         2.066137        -0.324732
 H         5.098633         0.891806         1.168490
 H         3.422667         1.030468        -1.980030
 H         1.506998        -0.296484        -2.239974
 H         2.536773        -1.657729        -1.354611
