19
Iteration:  4439charge 0 multiplicity 1
 C         0.025905        -0.426120         0.351761
 C         1.452354        -0.218974         0.006825
 C         2.578905        -0.323381         1.034823
 C         3.088975         0.834432         0.136990
 C         4.605758         1.119997         0.233736
 O         4.745374         0.172832        -0.820785
 C         3.367043         0.371890        -1.259048
 C         2.235246        -0.730022        -1.351971
 O         1.691209         1.311501         0.098132
 H        -0.275346         0.267261         1.200287
 H        -0.443810        -0.258650        -0.623610
 H        -0.048227        -1.455414         0.677823
 H         2.323393        -0.007586         2.040757
 H         3.286909        -1.148297         1.034635
 H         4.908083         2.072924        -0.225327
 H         4.855824         0.950754         1.218294
 H         3.381465         1.219173        -2.003674
 H         1.649367        -0.645428        -2.295668
 H         2.450915        -1.796981        -1.129243
