19
Iteration:   403charge 0 multiplicity 1
 C        -0.003556        -0.525212         0.238750
 C         1.443064        -0.190312         0.055266
 C         2.616945        -0.466122         1.056927
 C         3.094893         0.739937         0.205638
 C         4.528005         1.280528         0.128061
 O         4.832595         0.163503        -0.838622
 C         3.400640         0.339498        -1.255810
 C         2.075076        -0.622981        -1.335954
 O         1.795917         1.384148         0.215390
 H        -0.212413        -0.354423         1.258817
 H        -0.742949         0.068300        -0.241002
 H        -0.212018        -1.631613        -0.008487
 H         2.405654        -0.050721         2.085373
 H         3.180632        -1.410276         1.056766
 H         4.445697         2.226005        -0.482501
 H         5.285888         1.313186         0.925514
 H         3.458716         1.110557        -2.003143
 H         1.411825        -0.481988        -2.235117
 H         2.393722        -1.732609        -1.322294
