19
Iteration:  1320
 C        -0.087410        -0.527244         0.239560
 C         1.413030        -0.137162         0.049742
 C         2.512762        -0.426000         1.034083
 C         3.182074         0.767639         0.220740
 C         4.601211         1.265393         0.177795
 O         4.801704         0.214601        -0.897329
 C         3.326810         0.374388        -1.197492
 C         2.197697        -0.666206        -1.295932
 O         1.826469         1.265991         0.136712
 H        -0.489947         0.082128         1.041293
 H        -0.772387        -0.393980        -0.565725
 H        -0.100566        -1.717466         0.517054
 H         2.463470         0.026171         2.029413
 H         3.060299        -1.421451         1.045369
 H         4.851578         2.335543        -0.206954
 H         5.206531         0.943998         1.071869
 H         3.182496         1.209982        -1.916131
 H         1.642738        -0.389011        -2.202578
 H         2.481876        -1.692677        -1.214954
