19
Iteration:  1579
 C         0.111945        -0.619330         0.272808
 C         1.446801        -0.076212         0.022421
 C         2.606452        -0.366774         0.984666
 C         3.152167         0.746692         0.243354
 C         4.579795         1.218627         0.144603
 O         4.843491         0.087425        -0.785563
 C         3.304178         0.286424        -1.139149
 C         2.115833        -0.524941        -1.342777
 O         1.670668         1.351625         0.087898
 H        -0.112160        -0.506306         1.271489
 H        -0.630855         0.085924        -0.155203
 H        -0.193386        -1.587787        -0.085471
 H         2.388224         0.071188         1.959951
 H         3.036304        -1.364476         1.085589
 H         4.636166         2.185737        -0.405038
 H         5.027826         1.267287         1.144322
 H         3.287446         1.030509        -1.891977
 H         1.549117        -0.126001        -2.292299
 H         2.309587        -1.576424        -1.524685
