19
Iteration:  3494charge 0 multiplicity 1
 C        -0.011444        -0.516436         0.356191
 C         1.435109        -0.167374        -0.032426
 C         2.621700        -0.331811         0.949265
 C         3.133497         0.869655         0.166216
 C         4.617335         1.229530         0.115631
 O         4.788310         0.075762        -0.666888
 C         3.336548         0.312475        -1.204742
 C         2.222189        -0.679793        -1.376561
 O         1.656120         1.352902         0.077941
 H        -0.179071        -0.308241         1.403632
 H        -0.847143         0.010295        -0.135907
 H        -0.155945        -1.604962         0.251781
 H         2.437552         0.054343         1.922781
 H         3.251485        -1.231604         0.764280
 H         4.900489         2.237420        -0.205586
 H         5.122058         1.058686         1.190765
 H         3.394483         1.113252        -2.021909
 H         1.533443        -0.670380        -2.272446
 H         2.497748        -1.631077        -0.986035
