19
Iteration:  2311charge 0 multiplicity 1
 C         0.022932        -0.510612         0.248279
 C         1.438962        -0.169275         0.077431
 C         2.717151        -0.350682         1.026037
 C         3.081738         0.924617         0.190957
 C         4.660979         1.196382         0.151470
 O         4.767339         0.036495        -0.784157
 C         3.366189         0.379907        -1.207434
 C         2.097108        -0.577348        -1.306987
 O         1.647787         1.263695         0.083516
 H        -0.442704        -0.273662         1.215945
 H        -0.585744        -0.066458        -0.458364
 H        -0.208038        -1.586129         0.292871
 H         2.469704        -0.248233         2.083503
 H         3.345416        -1.219199         0.878063
 H         4.941450         2.055724        -0.443166
 H         5.291838         1.186590         1.137426
 H         3.459473         1.205858        -1.991013
 H         1.528212        -0.397526        -2.262900
 H         2.261697        -1.696004        -1.224909
