19
Iteration:  2962charge 0 multiplicity 1
 C        -0.110187        -0.547430         0.385242
 C         1.449534        -0.176205        -0.039246
 C         2.569491        -0.323560         1.061235
 C         3.150321         0.832337         0.186572
 C         4.662860         1.222895         0.144111
 O         4.841114         0.136092        -0.736026
 C         3.351464         0.320656        -1.196891
 C         2.158514        -0.664424        -1.407341
 O         1.718174         1.313258         0.027857
 H        -0.281229        -0.389409         1.483814
 H        -0.806300         0.116531        -0.154124
 H        -0.084389        -1.634050         0.248166
 H         2.446177        -0.000001         2.066057
 H         3.117759        -1.253611         1.075666
 H         4.910810         2.312646        -0.225327
 H         5.165713         1.077358         1.069234
 H         3.261589         1.138361        -2.000680
 H         1.565179        -0.294280        -2.325199
 H         2.301548        -1.754780        -1.341641
