19
Iteration:  2287charge 0 multiplicity 1
 C         0.034464        -0.596526         0.304691
 C         1.389708        -0.134014         0.032999
 C         2.553915        -0.328680         0.983727
 C         3.203536         0.759182         0.153152
 C         4.615065         1.278336         0.177966
 O         4.918559         0.103636        -0.748660
 C         3.262496         0.277380        -1.260284
 C         2.082654        -0.612988        -1.341202
 O         1.743506         1.376143         0.119563
 H        -0.177822        -0.527489         1.467675
 H        -0.791760         0.004850        -0.128434
 H        -0.228978        -1.633009         0.220935
 H         2.229586         0.050502         1.936904
 H         2.855594        -1.342599         1.134065
 H         4.834261         2.240572        -0.333532
 H         5.317818         1.174870         1.053649
 H         3.359638         1.083587        -1.936988
 H         1.579929        -0.169225        -2.295326
 H         2.061507        -1.789179        -1.493489
