19
Iteration:  4296
 C        -0.058669        -0.489694         0.285083
 C         1.424337        -0.100728         0.071081
 C         2.495401        -0.402068         0.999485
 C         3.146190         0.759405         0.192264
 C         4.590692         1.279199         0.179406
 O         4.849752         0.193279        -0.880803
 C         3.422946         0.326647        -1.202943
 C         2.160562        -0.783921        -1.279022
 O         1.771565         1.397884         0.099900
 H        -0.406407        -0.238167         1.295641
 H        -0.707828        -0.365988        -0.643879
 H         0.080560        -1.621507         0.483886
 H         2.313382        -0.047263         1.983507
 H         2.815107        -1.459525         1.094102
 H         4.750262         2.317733        -0.154220
 H         5.107904         1.061484         1.052050
 H         3.285100         0.888890        -2.182700
 H         1.572672        -0.820096        -2.304263
 H         2.403708        -1.749057        -0.904345
