19
Iteration:  2497
 C         0.036266        -0.549185         0.317490
 C         1.467202        -0.181688         0.008591
 C         2.582952        -0.373755         0.970901
 C         3.078920         0.845506         0.164075
 C         4.727428         1.133646         0.245033
 O         4.803165         0.166258        -0.813832
 C         3.294218         0.343526        -1.208934
 C         2.157009        -0.658888        -1.302977
 O         1.650653         1.412293         0.070175
 H        -0.274738        -0.096671         1.275964
 H        -0.590469        -0.126022        -0.440976
 H        -0.041839        -1.717597         0.475571
 H         2.367218        -0.161341         1.976387
 H         3.117575        -1.259396         0.849426
 H         4.896454         2.105612        -0.112326
 H         5.415521         0.984641         1.158787
 H         3.261977         1.058989        -1.988518
 H         1.485448        -0.539503        -2.233803
 H         2.299302        -1.728365        -1.222145
