19
Iteration:  4220
 C         0.041843        -0.574896         0.362625
 C         1.445847        -0.081568        -0.037601
 C         2.617160        -0.300023         0.974808
 C         3.048602         0.861839         0.149109
 C         4.672643         1.232673         0.249862
 O         4.828903         0.085228        -0.799167
 C         3.325514         0.239573        -1.169568
 C         2.158552        -0.698346        -1.347344
 O         1.642250         1.401097         0.100948
 H        -0.337503        -0.184035         1.319471
 H        -0.740386        -0.266102        -0.445293
 H         0.149745        -1.701140         0.162317
 H         2.267294        -0.183506         1.962622
 H         3.371754        -1.092550         0.783258
 H         5.007911         2.205548        -0.211272
 H         5.260034         1.154647         1.112362
 H         3.239121         0.931850        -2.084100
 H         1.450329        -0.584476        -2.281544
 H         2.396151        -1.726942        -1.154274
