19
Iteration:   122charge 0 multiplicity 1
 C        -0.050713        -0.562787         0.356936
 C         1.361829        -0.134855        -0.003033
 C         2.514038        -0.420148         0.963295
 C         3.147832         0.774212         0.271166
 C         4.575920         1.283510         0.150076
 O         4.919005         0.197899        -0.867584
 C         3.438296         0.283543        -1.165672
 C         2.086879        -0.630317        -1.388088
 O         1.795889         1.329555         0.165885
 H        -0.419238        -0.037394         1.133281
 H        -0.723612        -0.571132        -0.522962
 H         0.101258        -1.617781         0.683412
 H         2.120845        -0.126125         1.933753
 H         3.061257        -1.329516         0.925944
 H         4.387733         2.307400        -0.352539
 H         5.349766         1.303091         0.865875
 H         3.382233         1.087412        -1.787266
 H         1.572023        -0.361121        -2.343701
 H         2.176318        -1.728499        -1.350251
