19
Iteration:  1399
 C         0.029994        -0.618405         0.326295
 C         1.448182        -0.117611        -0.057276
 C         2.545554        -0.375798         0.987096
 C         3.134094         0.795099         0.206691
 C         4.627930         1.246110         0.164226
 O         4.859624         0.141445        -0.774163
 C         3.339862         0.293879        -1.134333
 C         2.007394        -0.625089        -1.366391
 O         1.751073         1.389578         0.078878
 H         0.068956        -0.635416         1.486869
 H        -0.752420        -0.035382        -0.017902
 H        -0.002989        -1.602501        -0.134457
 H         2.279812        -0.060949         2.064017
 H         3.066544        -1.391752         1.007568
 H         4.837792         2.237955        -0.319789
 H         5.229931         1.122062         1.205696
 H         3.305243         1.184203        -1.711547
 H         1.575409        -0.331799        -2.341320
 H         2.352120        -1.676654        -1.459840
