19
Iteration:  2216charge 0 multiplicity 1
 C        -0.003078        -0.496513         0.196088
 C         1.459090        -0.216203         0.078781
 C         2.652088        -0.338865         1.046791
 C         3.124240         0.856219         0.191598
 C         4.608849         1.120682         0.170372
 O         4.741467         0.135368        -0.860545
 C         3.305654         0.341894        -1.194820
 C         2.207770        -0.670382        -1.324884
 O         1.706022         1.349099         0.196874
 H        -0.429917         0.066895         0.961043
 H        -0.412647        -0.114893        -0.781465
 H        -0.468535        -1.541030         0.380658
 H         2.611211         0.048840         2.105379
 H         3.350257        -1.225033         1.063741
 H         4.802349         2.132056        -0.362939
 H         5.174634         1.108028         1.017147
 H         3.334756         1.123987        -1.937285
 H         1.597997        -0.357203        -2.125026
 H         2.350275        -1.676728        -1.492052
