19
Iteration:  2728charge 0 multiplicity 1
 C         0.037870        -0.481066         0.300937
 C         1.432316        -0.166906        -0.023151
 C         2.595819        -0.275754         1.067785
 C         3.091149         0.811654         0.244431
 C         4.577054         1.151460         0.211275
 O         4.784933         0.126258        -0.903450
 C         3.414941         0.315240        -1.213054
 C         2.245874        -0.632321        -1.374464
 O         1.673431         1.293324         0.106671
 H        -0.378028         0.070720         1.126636
 H        -0.762965        -0.411689        -0.469540
 H        -0.012066        -1.498833         0.796487
 H         2.235860         0.089659         2.026561
 H         3.006248        -1.209446         1.244957
 H         4.771404         2.169064        -0.114007
 H         5.163987         0.939874         1.142658
 H         3.150285         1.066582        -2.029570
 H         1.575748        -0.408995        -2.207938
 H         2.505760        -1.707272        -1.167957
