19
Iteration:   190
 C         0.088995        -0.561912         0.313045
 C         1.450981        -0.164090         0.009500
 C         2.565226        -0.324091         1.010134
 C         3.051447         0.945795         0.195446
 C         4.717267         1.109788         0.177401
 O         4.764055         0.168870        -0.873432
 C         3.356860         0.346477        -1.211151
 C         2.193889        -0.676656        -1.310139
 O         1.610059         1.348023         0.174538
 H        -0.279099        -0.499997         1.239423
 H        -0.605773         0.028483        -0.397103
 H         0.016599        -1.585209        -0.043846
 H         2.251576        -0.125359         2.023881
 H         3.191027        -1.187086         0.842491
 H         5.189977         2.064423        -0.217416
 H         5.182601         0.760001         1.097582
 H         3.340421         1.050101        -1.993610
 H         1.502197        -0.583280        -2.217853
 H         2.450826        -1.807035        -1.187246
