19
Iteration:  3692charge 0 multiplicity 1
 C         0.019526        -0.574264         0.319716
 C         1.399650        -0.169510         0.036594
 C         2.590588        -0.307131         0.992275
 C         3.104008         0.877359         0.153521
 C         4.677536         1.177959         0.205212
 O         4.844069         0.141776        -0.819268
 C         3.392598         0.314939        -1.186781
 C         2.099549        -0.618949        -1.229668
 O         1.646105         1.323062        -0.001851
 H        -0.214176        -0.356683         1.381513
 H        -0.547844        -0.068912        -0.501859
 H        -0.192781        -1.652927         0.212177
 H         2.453055        -0.070135         2.068943
 H         3.414806        -1.108893         1.086273
 H         4.900314         2.132859        -0.187042
 H         5.137032         0.970555         1.215896
 H         3.433606         0.984821        -2.101075
 H         1.567339        -0.412548        -2.180500
 H         2.129415        -1.775808        -1.178531
