19
Iteration:  2230
 C        -0.020536        -0.420173         0.256254
 C         1.481199        -0.264808         0.041735
 C         2.717480        -0.322704         1.007836
 C         3.073676         0.861686         0.171763
 C         4.651815         1.188314         0.181817
 O         4.736960         0.092596        -0.831327
 C         3.363394         0.370945        -1.232614
 C         2.187162        -0.644361        -1.327606
 O         1.621469         1.267397         0.178692
 H        -0.324260         0.082051         1.264288
 H        -0.591546         0.145226        -0.623941
 H        -0.276745        -1.474313         0.261433
 H         2.275469         0.062655         1.919358
 H         3.325896        -1.208735         1.089567
 H         5.028655         2.271961        -0.088522
 H         5.194323         0.700852         1.032757
 H         3.294894         1.119503        -1.968035
 H         1.584977        -0.469158        -2.276591
 H         2.625798        -1.739690        -1.184802
