19
Iteration:  3690
 C         0.007710        -0.570304         0.322514
 C         1.397806        -0.177178         0.028150
 C         2.602254        -0.305955         0.997897
 C         3.126875         0.889787         0.137406
 C         4.663499         1.174306         0.197102
 O         4.843346         0.128204        -0.815866
 C         3.402683         0.324861        -1.184282
 C         2.100422        -0.626474        -1.222290
 O         1.634426         1.319123         0.009097
 H        -0.283533        -0.321464         1.327425
 H        -0.598135        -0.015010        -0.446453
 H        -0.140814        -1.681227         0.212043
 H         2.443132        -0.109865         1.993593
 H         3.446723        -1.053325         1.092137
 H         4.891170         2.146503        -0.177523
 H         5.128530         0.990258         1.250662
 H         3.453688         1.018466        -2.051178
 H         1.521716        -0.434903        -2.206991
 H         2.203109        -1.722132        -1.234456
