19
Iteration:  2307
 C         0.038414        -0.513911         0.272364
 C         1.436442        -0.159473         0.062234
 C         2.681924        -0.369789         1.031145
 C         3.112687         0.886296         0.180185
 C         4.686882         1.182285         0.138514
 O         4.799626         0.058008        -0.756344
 C         3.363773         0.395547        -1.214425
 C         2.054197        -0.559808        -1.322684
 O         1.639431         1.261371         0.074779
 H        -0.540905        -0.382845         1.294585
 H        -0.628555         0.031875        -0.536721
 H        -0.141109        -1.580621         0.279901
 H         2.470890        -0.173946         2.086046
 H         3.354703        -1.231961         0.949492
 H         4.880383         2.136699        -0.453349
 H         5.199186         1.254704         1.068182
 H         3.474679         1.097115        -1.984267
 H         1.382743        -0.436125        -2.230411
 H         2.357412        -1.679091        -1.162460
