19
Iteration:  2397
 C        -0.005055        -0.435339         0.254822
 C         1.456171        -0.271485        -0.007912
 C         2.596403        -0.381081         1.080217
 C         3.118233         0.791961         0.196477
 C         4.609126         1.237934         0.181994
 O         4.787490         0.177251        -0.895833
 C         3.330104         0.357844        -1.200683
 C         2.127080        -0.653384        -1.258479
 O         1.745686         1.277617         0.106206
 H        -0.046593         0.038939         1.297386
 H        -0.561684         0.082684        -0.540694
 H        -0.187580        -1.522862         0.407944
 H         2.180084        -0.027473         2.014156
 H         3.122154        -1.301022         1.196905
 H         4.937224         2.159383        -0.261903
 H         5.071392         1.045267         1.189699
 H         3.288018         1.078410        -1.980449
 H         1.650026        -0.410718        -2.247232
 H         2.557535        -1.699123        -1.230451
