19
Iteration:   676charge 0 multiplicity 1
 C         0.002788        -0.498246         0.377058
 C         1.465665        -0.248195        -0.001718
 C         2.699871        -0.374194         0.924653
 C         3.064248         0.881033         0.157390
 C         4.522332         1.096798         0.226869
 O         4.741573         0.119525        -0.852784
 C         3.342479         0.459691        -1.211592
 C         2.258254        -0.608958        -1.339232
 O         1.689681         1.300500         0.123142
 H        -0.158473         0.041842         1.228872
 H        -0.682558        -0.107562        -0.459880
 H        -0.333933        -1.609991         0.625921
 H         2.530903        -0.071333         1.965135
 H         3.449815        -1.174274         0.887981
 H         4.854506         2.136674        -0.027005
 H         4.980553         0.811091         1.203909
 H         3.377441         1.425713        -1.903005
 H         1.442126        -0.531827        -2.099376
 H         2.695500        -1.656371        -1.182720
