19
Iteration:  1274
 C        -0.022063        -0.557047         0.359649
 C         1.455853        -0.174454         0.044382
 C         2.635890        -0.362794         0.960024
 C         3.120140         0.812874         0.179246
 C         4.620466         1.219034         0.274931
 O         4.720377         0.167625        -0.840269
 C         3.362108         0.346391        -1.185720
 C         2.158098        -0.609321        -1.340830
 O         1.752074         1.302271         0.055405
 H        -0.431803        -0.199844         1.268037
 H        -0.677133        -0.168723        -0.509537
 H         0.062377        -1.726939         0.196414
 H         2.233076        -0.102993         1.933304
 H         3.112322        -1.333248         0.893643
 H         4.991259         2.236618        -0.191990
 H         5.207045         0.919344         1.089946
 H         3.302559         1.219776        -1.964666
 H         1.585961        -0.331298        -2.197864
 H         2.415920        -1.644176        -1.286681
