19
Iteration:  3578
 C         0.018690        -0.433932         0.242382
 C         1.477390        -0.132869        -0.018311
 C         2.608137        -0.360125         1.030279
 C         3.074432         0.863039         0.260388
 C         4.611789         1.167987         0.176085
 O         4.717733         0.159326        -0.852073
 C         3.262495         0.386501        -1.154176
 C         2.286029        -0.773122        -1.297363
 O         1.725827         1.293538         0.070589
 H        -0.254705         0.037698         1.238390
 H        -0.619167        -0.388185        -0.670173
 H        -0.017245        -1.511449         0.437004
 H         2.442268         0.080699         2.123447
 H         3.361011        -1.173513         1.083688
 H         4.745162         2.252260        -0.140223
 H         5.173749         0.836003         1.032798
 H         3.207315         1.106994        -1.981611
 H         1.741207        -0.775785        -2.352715
 H         2.379649        -1.835823        -0.969261
