19
Iteration:  3047charge 0 multiplicity 1
 C         0.025625        -0.495371         0.249923
 C         1.407973        -0.132882        -0.002089
 C         2.502145        -0.354539         1.121565
 C         3.159108         0.793341         0.242793
 C         4.640189         1.236846         0.086104
 O         4.843293         0.126244        -0.831234
 C         3.337527         0.290008        -1.176095
 C         2.156501        -0.635190        -1.343389
 O         1.730510         1.292760         0.144076
 H        -0.525038        -0.133080         1.107419
 H        -0.508005        -0.425450        -0.665278
 H         0.060043        -1.540673         0.322495
 H         2.189393         0.149967         2.073211
 H         3.084136        -1.269259         1.181758
 H         4.602423         2.221763        -0.452058
 H         5.265301         1.312632         0.892980
 H         3.322697         1.177105        -1.854521
 H         1.686082        -0.415652        -2.309676
 H         2.224322        -1.729064        -1.271667
