19
Iteration:  1012charge 0 multiplicity 1
 C        -0.003081        -0.609300         0.299603
 C         1.423228        -0.204482         0.012205
 C         2.479263        -0.437845         1.051917
 C         3.116196         0.793660         0.272853
 C         4.681510         1.251416         0.104310
 O         4.847394         0.199218        -0.843440
 C         3.401814         0.317636        -1.186264
 C         2.131623        -0.533265        -1.384078
 O         1.752082         1.328277         0.149038
 H        -0.366743        -0.164201         1.105024
 H        -0.586064        -0.148548        -0.521470
 H        -0.179816        -1.688684         0.300304
 H         2.111917        -0.048260         2.057470
 H         2.927753        -1.473778         1.091215
 H         4.647975         2.224905        -0.371658
 H         5.367808         1.206042         1.061478
 H         3.245008         1.060296        -1.910782
 H         1.594950        -0.225862        -2.305470
 H         2.213347        -1.633455        -1.267968
