19
Iteration:  3663charge 0 multiplicity 1
 C         0.053284        -0.548899         0.311139
 C         1.410635        -0.187767         0.052543
 C         2.620185        -0.347336         1.023194
 C         3.084386         0.911550         0.098621
 C         4.630619         1.224174         0.150152
 O         4.671049         0.061387        -0.701695
 C         3.336421         0.345159        -1.247337
 C         2.260738        -0.660299        -1.409692
 O         1.703630         1.316376         0.144888
 H        -0.359689        -0.024483         1.241842
 H        -0.485852         0.132675        -0.356193
 H        -0.146014        -1.607501         0.270874
 H         2.541155         0.085784         2.115287
 H         3.368897        -1.092434         1.118561
 H         4.858009         2.226494        -0.407520
 H         5.151395         1.225427         1.060618
 H         3.458931         0.986589        -2.112646
 H         1.797142        -0.588839        -2.349088
 H         2.385774        -1.750337        -1.240701
