19
Iteration:  1173
 C         0.008261        -0.453860         0.256924
 C         1.460498        -0.190824        -0.024911
 C         2.622022        -0.358802         1.040316
 C         3.105669         0.811269         0.244899
 C         4.667370         1.157366         0.232665
 O         4.741198         0.235522        -0.900914
 C         3.301745         0.317135        -1.159575
 C         2.242563        -0.705631        -1.372533
 O         1.670040         1.280816         0.145755
 H        -0.317016         0.138316         1.259151
 H        -0.709848        -0.117873        -0.602684
 H        -0.037199        -1.581091         0.449300
 H         2.232600        -0.090001         2.010018
 H         3.291482        -1.175559         1.052153
 H         4.892029         2.205455        -0.117174
 H         5.046977         0.874938         1.135896
 H         3.241616         1.213784        -1.941206
 H         1.698004        -0.399570        -2.225147
 H         2.509477        -1.768946        -1.380664
