19
Iteration:  1356
 C         0.037540        -0.458391         0.156284
 C         1.483548        -0.209649         0.038611
 C         2.666952        -0.332363         0.960188
 C         3.146364         0.851514         0.172591
 C         4.627032         1.227724         0.185997
 O         4.784525         0.134900        -0.800042
 C         3.221909         0.382818        -1.202897
 C         2.156935        -0.705988        -1.320562
 O         1.664293         1.252315         0.246487
 H        -0.240673         0.013727         1.201246
 H        -0.429378         0.025127        -0.701800
 H        -0.181909        -1.502169         0.240724
 H         2.420252         0.071932         2.006236
 H         3.285953        -1.301769         0.888223
 H         4.876609         2.069435        -0.285035
 H         5.305812         1.193685         1.170713
 H         3.217662         1.093587        -1.931663
 H         1.448115        -0.621777        -2.193540
 H         2.357634        -1.825831        -1.243811
