19
Iteration:  1686charge 0 multiplicity 1
 C        -0.026510        -0.577255         0.235663
 C         1.392894        -0.042332         0.041670
 C         2.515404        -0.405049         1.035908
 C         3.179515         0.698228         0.238437
 C         4.640580         1.215075         0.143994
 O         4.846102         0.234823        -0.900248
 C         3.400806         0.265897        -1.170936
 C         2.145424        -0.635230        -1.266824
 O         1.718138         1.354740         0.118491
 H        -0.444729        -0.132171         1.093850
 H        -0.734615        -0.426390        -0.695272
 H         0.094258        -1.592743         0.471317
 H         2.177899        -0.116712         2.045764
 H         2.901971        -1.454034         0.995518
 H         4.530317         2.217479        -0.142969
 H         5.476232         1.154546         0.990074
 H         3.312347         1.151905        -1.790806
 H         1.763016        -0.303495        -2.132777
 H         2.249521        -1.678232        -1.250982
