19
Iteration:  4876
 C        -0.006366        -0.589985         0.186564
 C         1.405856        -0.091318         0.098051
 C         2.612392        -0.342795         1.020476
 C         3.148611         0.805107         0.191397
 C         4.577217         1.273365         0.130352
 O         4.858776         0.083574        -0.735622
 C         3.321454         0.269177        -1.268827
 C         2.097790        -0.609947        -1.291179
 O         1.793065         1.342566         0.145635
 H        -0.485849        -0.551002         1.301641
 H        -0.726940         0.082914        -0.323435
 H        -0.188729        -1.585171        -0.121588
 H         2.217752        -0.001649         2.088287
 H         3.145319        -1.279081         0.984887
 H         4.620445         2.250244        -0.463558
 H         5.209362         1.459594         0.966252
 H         3.420777         0.916320        -2.130849
 H         1.408308        -0.497230        -2.073996
 H         2.401489        -1.695649        -1.411070
