19
Iteration:  2015
 C         0.036619        -0.464824         0.289510
 C         1.484960        -0.167130        -0.002483
 C         2.599600        -0.448559         0.992595
 C         3.071213         0.854203         0.212146
 C         4.620819         1.242238         0.227703
 O         4.758409         0.199407        -0.861442
 C         3.333274         0.315312        -1.210625
 C         2.170679        -0.730895        -1.348654
 O         1.735170         1.347474         0.138663
 H        -0.491290         0.263076         1.031444
 H        -0.712987        -0.351830        -0.497331
 H        -0.268628        -1.470365         0.608065
 H         2.461301        -0.128281         2.035245
 H         3.197263        -1.412585         0.976787
 H         4.987507         2.217737        -0.037903
 H         5.062720         0.728387         1.164461
 H         3.382123         1.059633        -2.013164
 H         1.628411        -0.588366        -2.274990
 H         2.378598        -1.785088        -1.180659
