19
Iteration:  2105
 C        -0.050915        -0.583649         0.298227
 C         1.447612        -0.165753        -0.014165
 C         2.573875        -0.330143         0.934472
 C         3.138450         0.844611         0.122476
 C         4.595126         1.241664         0.182071
 O         4.762857         0.103335        -0.744027
 C         3.393155         0.316350        -1.214487
 C         2.130476        -0.652786        -1.315159
 O         1.785555         1.364081         0.182358
 H        -0.159065        -0.435543         1.423272
 H        -0.753930         0.052986        -0.203658
 H        -0.140060        -1.679347        -0.093556
 H         2.458564         0.071325         1.969141
 H         3.284082        -1.244869         0.937324
 H         4.729787         2.273817        -0.268007
 H         5.318493         0.967912         0.963055
 H         3.296332         1.042820        -2.017963
 H         1.549867        -0.399048        -2.176555
 H         2.235691        -1.689870        -1.291376
