19
Iteration:   833charge 0 multiplicity 1
 C        -0.008255        -0.563944         0.293665
 C         1.422724        -0.158436         0.035424
 C         2.545424        -0.380263         1.022210
 C         3.114235         0.840563         0.192951
 C         4.621389         1.174199         0.151040
 O         4.845994         0.227489        -0.899794
 C         3.411483         0.298945        -1.152779
 C         2.184964        -0.629981        -1.339868
 O         1.683509         1.320504         0.174418
 H        -0.493171        -0.150063         1.289936
 H        -0.591052        -0.273681        -0.526100
 H        -0.052237        -1.613500         0.322223
 H         2.061758         0.012018         1.902221
 H         3.101543        -1.316969         1.092589
 H         4.928274         2.163760        -0.236896
 H         5.184095         0.914446         0.952693
 H         3.197869         1.139541        -1.902120
 H         1.737628        -0.438809        -2.311214
 H         2.280348        -1.692551        -1.236002
