19
Iteration:  3053
 C         0.020288        -0.515900         0.251391
 C         1.447991        -0.107826        -0.021314
 C         2.537072        -0.354837         1.092747
 C         3.157975         0.762398         0.240912
 C         4.654975         1.272012         0.093510
 O         4.775322         0.125328        -0.825852
 C         3.332524         0.297481        -1.130217
 C         2.173424        -0.658233        -1.378282
 O         1.756119         1.309896         0.127786
 H        -0.612673        -0.074798         1.087079
 H        -0.578499        -0.278163        -0.695802
 H        -0.009231        -1.652516         0.565216
 H         2.099403         0.086784         1.994173
 H         2.959509        -1.384951         1.200732
 H         4.607544         2.286339        -0.329993
 H         5.411555         1.325440         1.019445
 H         3.264133         1.084717        -1.873981
 H         1.467256        -0.484995        -2.221474
 H         2.330621        -1.732199        -1.189343
