19
Iteration:  2229
 C        -0.026339        -0.422839         0.255978
 C         1.486191        -0.264589         0.047960
 C         2.721717        -0.321777         1.006390
 C         3.067444         0.852266         0.165123
 C         4.659596         1.180976         0.177724
 O         4.736829         0.092994        -0.829395
 C         3.353553         0.367386        -1.228902
 C         2.199393        -0.640507        -1.327642
 O         1.621347         1.276507         0.182535
 H        -0.309556         0.097765         1.212542
 H        -0.573261         0.136075        -0.634136
 H        -0.287537        -1.500394         0.250599
 H         2.268232         0.085530         1.918083
 H         3.341197        -1.214636         1.101956
 H         4.973547         2.281750        -0.068544
 H         5.165971         0.724751         0.998816
 H         3.258036         1.099571        -1.958317
 H         1.629302        -0.443531        -2.251591
 H         2.587808        -1.713159        -1.205146
