19
Iteration:  1965charge 0 multiplicity 1
 C         0.045679        -0.548237         0.247559
 C         1.489962        -0.156494         0.051559
 C         2.556004        -0.347217         1.052806
 C         3.122307         0.851965         0.132920
 C         4.601864         1.231287         0.161195
 O         4.763854         0.110606        -0.772641
 C         3.343662         0.269565        -1.217760
 C         2.144492        -0.613275        -1.339965
 O         1.744372         1.330929         0.166477
 H        -0.302731        -0.452979         1.318624
 H        -0.690662        -0.188399        -0.478334
 H        -0.061570        -1.701366         0.042868
 H         2.208173         0.029360         2.034627
 H         3.084486        -1.312098         0.936025
 H         4.851047         2.259907        -0.402180
 H         5.184607         1.271044         1.019544
 H         3.420460         1.177298        -1.934500
 H         1.546074        -0.219955        -2.203995
 H         2.309845        -1.697974        -1.515289
