19
Iteration:   995charge 0 multiplicity 1
 C         0.105233        -0.496381         0.122351
 C         1.467126        -0.137459        -0.035316
 C         2.545843        -0.464472         1.045813
 C         3.181371         0.798219         0.270475
 C         4.630729         1.310266         0.129136
 O         4.801891         0.172803        -0.854253
 C         3.291440         0.282666        -1.113402
 C         2.050839        -0.700493        -1.311767
 O         1.718305         1.330534         0.229766
 H        -0.308365         0.049559         1.158436
 H        -0.627992        -0.404537        -0.656486
 H         0.145497        -1.625143         0.291315
 H         2.176566        -0.119866         1.989175
 H         3.106009        -1.399161         0.990732
 H         4.867922         2.323385        -0.338451
 H         5.358994         1.199871         0.885376
 H         3.251625         1.250450        -1.794544
 H         1.475392        -0.201159        -2.124496
 H         2.288122        -1.754577        -1.518955
