19
Iteration:  4716
 C        -0.010394        -0.512873         0.249706
 C         1.481516        -0.146188         0.116646
 C         2.705455        -0.302920         1.019274
 C         3.108618         0.878265         0.110026
 C         4.577692         1.199956         0.265095
 O         4.736047         0.115505        -0.763421
 C         3.310114         0.279598        -1.277290
 C         2.164760        -0.679205        -1.326553
 O         1.724172         1.325850         0.069372
 H        -0.211085        -0.511276         1.269558
 H        -0.594891         0.284889        -0.280839
 H        -0.314694        -1.498865        -0.155877
 H         2.650619        -0.280586         2.085227
 H         3.207017        -1.309213         0.793584
 H         4.851796         2.233049        -0.169948
 H         5.161149         1.127489         1.278955
 H         3.287700         1.079092        -2.065931
 H         1.481083        -0.532907        -2.193367
 H         2.390438        -1.770010        -1.166282
