19
Iteration:  1830
 C         0.011053        -0.526802         0.164281
 C         1.523794        -0.248817         0.060115
 C         2.754778        -0.382940         1.075745
 C         3.066356         0.917121         0.200300
 C         4.606305         1.196258         0.214960
 O         4.661927         0.101232        -0.818069
 C         3.298018         0.346507        -1.219602
 C         2.197618        -0.677822        -1.342615
 O         1.676638         1.395238         0.149275
 H        -0.150503         0.280732         0.998200
 H        -0.562683        -0.151399        -0.798608
 H        -0.243845        -1.532873         0.568622
 H         2.528233        -0.130708         2.153048
 H         3.264005        -1.386404         0.982587
 H         4.897867         2.166526        -0.277249
 H         5.216015         0.808206         1.084579
 H         3.261358         1.025846        -2.155521
 H         1.725639        -0.340884        -2.194898
 H         2.472243        -1.682501        -1.322221
