19
Iteration:    40charge 0 multiplicity 1
 C        -0.034328        -0.652246         0.218942
 C         1.391916        -0.148684         0.043159
 C         2.566000        -0.368532         1.034190
 C         3.122415         0.808759         0.214505
 C         4.564598         1.202330         0.073419
 O         4.859391         0.112619        -0.861543
 C         3.355815         0.354508        -1.222464
 C         2.137685        -0.519031        -1.201586
 O         1.808523         1.359788         0.143258
 H        -0.299442        -0.723085         1.386548
 H        -0.819941         0.036784        -0.210852
 H        -0.115145        -1.680042        -0.142235
 H         2.227330        -0.124002         2.072620
 H         3.102645        -1.368941         1.204664
 H         4.664534         2.155992        -0.457638
 H         5.280960         1.254051         0.994104
 H         3.304870         1.316245        -1.890678
 H         1.552860        -0.502940        -2.122315
 H         2.497948        -1.564267        -1.093275
