19
Iteration:  3436charge 0 multiplicity 1
 C        -0.070624        -0.522111         0.243228
 C         1.447915        -0.126019         0.058494
 C         2.557780        -0.329021         1.039445
 C         3.211698         0.830270         0.227636
 C         4.685917         1.274895         0.212151
 O         4.824919         0.192021        -0.861479
 C         3.364088         0.229683        -1.134635
 C         2.071844        -0.678938        -1.292111
 O         1.731577         1.291098         0.006403
 H        -0.550039        -0.111881         1.175139
 H        -0.594470        -0.455943        -0.705516
 H         0.008604        -1.590326         0.346571
 H         2.489169        -0.037260         2.183889
 H         3.133059        -1.228031         1.095960
 H         4.859541         2.234862        -0.281085
 H         5.309244         1.058622         1.126249
 H         3.162754         1.025629        -1.938288
 H         1.295299        -0.454303        -2.074279
 H         2.091610        -1.831315        -1.328615
