19
Iteration:  2390charge 0 multiplicity 1
 C        -0.011179        -0.458400         0.283505
 C         1.461470        -0.205317        -0.005933
 C         2.587793        -0.366494         1.130964
 C         3.134969         0.777634         0.276104
 C         4.639560         1.243160         0.162559
 O         4.808108         0.201507        -0.915690
 C         3.336648         0.300039        -1.169000
 C         2.129839        -0.685648        -1.345892
 O         1.718643         1.298758         0.064826
 H        -0.136862         0.082565         1.126325
 H        -0.673245        -0.118732        -0.458829
 H        -0.349381        -1.504547         0.344712
 H         2.228606        -0.165146         2.161599
 H         3.223145        -1.285496         1.075920
 H         4.872168         2.269657        -0.154503
 H         5.131242         0.897273         1.123347
 H         3.386451         1.157347        -1.896259
 H         1.475335        -0.415303        -2.186965
 H         2.394583        -1.700497        -1.341172
