19
Iteration:  3042charge 0 multiplicity 1
 C         0.007842        -0.505752         0.226274
 C         1.414183        -0.143733         0.047347
 C         2.499243        -0.338952         1.106972
 C         3.136326         0.804908         0.246931
 C         4.589463         1.224775         0.072588
 O         4.892179         0.126922        -0.839231
 C         3.370437         0.284763        -1.202372
 C         2.125310        -0.622192        -1.300951
 O         1.710697         1.306183         0.146863
 H        -0.381946        -0.028962         1.169230
 H        -0.650281        -0.393588        -0.708081
 H         0.099326        -1.681885         0.198933
 H         2.272670         0.050492         2.098179
 H         3.152671        -1.240617         1.247797
 H         4.704879         2.100236        -0.569172
 H         5.350503         1.195075         1.002340
 H         3.334384         1.149689        -1.857158
 H         1.801315        -0.333939        -2.328612
 H         2.284281        -1.711124        -1.360326
