19
Iteration:  4489
 C        -0.053327        -0.552300         0.175586
 C         1.381544        -0.143171         0.052769
 C         2.631142        -0.334100         1.120411
 C         3.140096         0.788040         0.217133
 C         4.641972         1.308972         0.098876
 O         4.828281         0.132457        -0.824045
 C         3.337737         0.256652        -1.146041
 C         2.103780        -0.641996        -1.280212
 O         1.769937         1.300942         0.101232
 H        -0.233903        -0.194133         1.162441
 H        -0.565401         0.108906        -0.543374
 H        -0.205079        -1.674603         0.110208
 H         2.155477         0.056258         2.037013
 H         3.092759        -1.361950         1.229129
 H         4.572254         2.193865        -0.535318
 H         5.437327         1.152936         0.936759
 H         3.452314         0.996793        -1.923420
 H         1.541336        -0.243245        -2.204839
 H         2.316330        -1.675331        -1.389474
