19
Iteration:    32charge 0 multiplicity 1
 C         0.007100        -0.663367         0.200351
 C         1.434528        -0.097493         0.010195
 C         2.524611        -0.396858         1.088243
 C         3.114689         0.769310         0.233407
 C         4.581046         1.247094         0.030713
 O         4.854523         0.129062        -0.859958
 C         3.354022         0.285785        -1.137268
 C         2.087078        -0.563884        -1.305249
 O         1.808316         1.427538         0.182522
 H        -0.044596        -0.656852         1.349258
 H        -0.802590        -0.182313        -0.114184
 H        -0.074300        -1.664875        -0.117905
 H         2.261451         0.040892         2.063663
 H         3.043036        -1.402652         0.985744
 H         4.602082         2.202574        -0.499033
 H         5.247260         1.193808         0.968395
 H         3.298439         1.114382        -1.729371
 H         1.620036        -0.485493        -2.234334
 H         2.338595        -1.545983        -1.105756
