19
Iteration:  3040
 C        -0.007840        -0.521113         0.212814
 C         1.424620        -0.144955         0.070243
 C         2.511258        -0.330276         1.096292
 C         3.120135         0.805920         0.244794
 C         4.572377         1.216803         0.078611
 O         4.908845         0.125377        -0.843792
 C         3.390513         0.274727        -1.199807
 C         2.116633        -0.618500        -1.278366
 O         1.702344         1.318734         0.145470
 H        -0.300805        -0.021047         1.138931
 H        -0.721063        -0.314760        -0.701394
 H         0.084910        -1.719482         0.204511
 H         2.296374        -0.013362         2.082566
 H         3.146535        -1.235886         1.265204
 H         4.764424         2.137477        -0.625897
 H         5.329495         1.144372         0.980639
 H         3.332615         1.181646        -1.936255
 H         1.747442        -0.278306        -2.365846
 H         2.335950        -1.697244        -1.385959
