19
Iteration:  4559
 C         0.064035        -0.531190         0.355983
 C         1.424875        -0.132381         0.010460
 C         2.524834        -0.370894         1.058337
 C         3.134826         0.828205         0.141119
 C         4.609249         1.147736         0.248699
 O         4.873923         0.178351        -0.811847
 C         3.360632         0.268743        -1.232021
 C         2.127725        -0.650860        -1.343058
 O         1.670048         1.375825         0.031019
 H        -0.198025        -0.250214         1.398285
 H        -0.637240        -0.110698        -0.318921
 H         0.045734        -1.589848         0.324799
 H         2.368841         0.236840         2.001875
 H         3.029837        -1.328760         1.099511
 H         4.791455         2.099009        -0.362066
 H         5.057958         0.951542         1.190604
 H         3.358221         0.979874        -2.070389
 H         1.614611        -0.278703        -2.251123
 H         2.239645        -1.804144        -1.224455
