19
Iteration:  1182
 C        -0.051749        -0.522969         0.249208
 C         1.471946        -0.166745        -0.024218
 C         2.548818        -0.369224         1.055331
 C         3.215027         0.770844         0.240361
 C         4.645303         1.206445         0.208403
 O         4.778146         0.249444        -0.856889
 C         3.382971         0.236353        -1.222730
 C         2.184970        -0.653644        -1.357326
 O         1.653010         1.333034         0.141409
 H        -0.091783        -0.046175         1.357535
 H        -0.870835        -0.203721        -0.390794
 H         0.038905        -1.536808         0.331617
 H         2.223934        -0.075915         2.034580
 H         3.161608        -1.260296         1.024646
 H         4.922936         2.314640        -0.074022
 H         5.330159         0.942396         1.088967
 H         3.108216         1.126310        -1.876585
 H         1.537940        -0.336830        -2.213311
 H         2.300050        -1.773253        -1.453516
