19
Iteration:  4721
 C         0.026742        -0.483511         0.222857
 C         1.499989        -0.136781         0.145966
 C         2.726282        -0.340569         0.972863
 C         3.109199         0.905785         0.102048
 C         4.579780         1.202426         0.232909
 O         4.740774         0.131080        -0.734268
 C         3.336689         0.285886        -1.226929
 C         2.100262        -0.717450        -1.345746
 O         1.695288         1.310007         0.076744
 H        -0.413022        -0.540895         1.314944
 H        -0.616470         0.204894        -0.312932
 H        -0.331138        -1.481470        -0.133008
 H         2.549467        -0.143427         2.083358
 H         3.300578        -1.259258         0.983260
 H         4.832665         2.115968        -0.226239
 H         5.210812         0.969757         1.073414
 H         3.304879         1.102555        -1.954054
 H         1.508914        -0.414154        -2.211679
 H         2.455171        -1.717942        -1.170973
