19
Iteration:  3628
 C        -0.068018        -0.569589         0.285788
 C         1.435063        -0.086251         0.045652
 C         2.602396        -0.370741         1.025289
 C         3.166534         0.783043         0.175408
 C         4.601498         1.286098         0.179220
 O         4.870729         0.154880        -0.789034
 C         3.369154         0.241409        -1.146919
 C         2.049400        -0.680078        -1.330887
 O         1.737901         1.352277         0.057095
 H        -0.384932        -0.152175         1.269017
 H        -0.649160        -0.320742        -0.592508
 H        -0.208310        -1.658324         0.271091
 H         2.371808         0.052610         2.041615
 H         3.303535        -1.198171         0.805053
 H         4.652011         2.233583        -0.423170
 H         5.254453         1.270299         1.049212
 H         3.332158         1.070309        -1.899571
 H         1.722450        -0.412880        -2.278642
 H         2.324889        -1.763901        -1.158884
