19
Iteration:  1311charge 0 multiplicity 1
 C        -0.029903        -0.536111         0.291817
 C         1.372865        -0.136350         0.006277
 C         2.514264        -0.387503         1.005271
 C         3.186547         0.722019         0.222149
 C         4.631012         1.239535         0.190902
 O         4.848101         0.239076        -0.896346
 C         3.362212         0.331657        -1.224962
 C         2.141851        -0.661445        -1.319528
 O         1.789409         1.332132         0.163940
 H        -0.603045        -0.088756         1.150694
 H        -0.566816        -0.428658        -0.597989
 H        -0.102310        -1.668431         0.521377
 H         2.136999         0.015565         1.995837
 H         2.918630        -1.463189         1.141773
 H         4.540084         2.226611        -0.016914
 H         5.388525         1.091391         1.054314
 H         3.254014         1.137094        -1.869388
 H         1.509761        -0.628169        -2.261961
 H         2.512706        -1.707164        -1.292796
