19
Iteration:  2864
 C        -0.025555        -0.557787         0.287610
 C         1.387746        -0.204722         0.003448
 C         2.589926        -0.267131         1.078095
 C         3.143347         0.786079         0.187031
 C         4.621402         1.214473         0.220669
 O         4.851966         0.206058        -0.841462
 C         3.317232         0.281238        -1.185727
 C         2.058171        -0.738307        -1.348260
 O         1.813633         1.360307         0.055019
 H        -0.249144         0.015067         1.247155
 H        -0.465567        -0.303545        -0.663904
 H        -0.009918        -1.631333         0.520409
 H         2.209575         0.111284         1.972036
 H         3.156081        -1.162712         1.126535
 H         4.791318         2.242085        -0.093887
 H         5.115321         1.041443         1.133322
 H         3.237092         1.086804        -1.857194
 H         1.534886        -0.347623        -2.233963
 H         2.254715        -1.797659        -1.313145
