19
Iteration:  4404
 C         0.035876        -0.563997         0.323208
 C         1.398423        -0.132987         0.022481
 C         2.621252        -0.334094         1.011272
 C         3.120255         0.834915         0.170065
 C         4.658101         1.218503         0.192777
 O         4.826215         0.103390        -0.753163
 C         3.399070         0.343829        -1.186561
 C         2.051408        -0.644922        -1.296134
 O         1.703600         1.317045         0.025545
 H        -0.460798        -0.066033         1.108095
 H        -0.735652        -0.316078        -0.444521
 H        -0.040295        -1.673350         0.403774
 H         2.202015        -0.039867         1.972301
 H         3.209284        -1.293024         0.978660
 H         4.980672         2.063638        -0.503806
 H         5.299378         1.294234         1.093530
 H         3.287261         1.131417        -1.975894
 H         1.541786        -0.294549        -2.316348
 H         2.156799        -1.707625        -1.343561
