19
Iteration:  1961charge 0 multiplicity 1
 C         0.037276        -0.563570         0.238017
 C         1.483995        -0.159626         0.028189
 C         2.599043        -0.327248         0.996342
 C         3.122800         0.875595         0.180392
 C         4.589203         1.201932         0.151910
 O         4.756610         0.101378        -0.757013
 C         3.320902         0.309111        -1.209479
 C         2.137513        -0.640124        -1.334629
 O         1.743131         1.335771         0.172041
 H        -0.259828        -0.438864         1.382123
 H        -0.583501        -0.066742        -0.535577
 H        -0.087343        -1.696836         0.013817
 H         2.285982         0.134255         1.948587
 H         3.224592        -1.283196         0.925158
 H         4.783208         2.203839        -0.315873
 H         5.262704         1.288804         1.079960
 H         3.442484         1.020781        -1.983849
 H         1.483929        -0.340275        -2.134245
 H         2.289945        -1.688292        -1.451383
