19
Iteration:  3222charge 0 multiplicity 1
 C        -0.009507        -0.454810         0.363531
 C         1.408342        -0.189883        -0.034889
 C         2.499677        -0.343317         1.024898
 C         3.076598         0.781210         0.224617
 C         4.588145         1.235458         0.176969
 O         4.891611         0.127365        -0.869442
 C         3.339280         0.386547        -1.220271
 C         2.238506        -0.780938        -1.342249
 O         1.743031         1.364780         0.099348
 H        -0.445994         0.013542         1.347974
 H        -0.735546        -0.054280        -0.451099
 H        -0.153710        -1.578251         0.444528
 H         2.292155        -0.050780         2.122137
 H         2.987964        -1.424590         1.229748
 H         4.610766         2.339219        -0.236490
 H         5.244218         1.112970         1.149204
 H         3.518118         1.185343        -1.973146
 H         1.692422        -0.761177        -2.381238
 H         2.474178        -1.785056        -1.074866
