19
Iteration:  3512
 C         0.053144        -0.572845         0.314835
 C         1.431873        -0.203490         0.067140
 C         2.600013        -0.387871         1.024246
 C         3.093264         0.897192         0.152497
 C         4.541425         1.292761         0.210861
 O         4.840908         0.062904        -0.756627
 C         3.419391         0.290198        -1.183368
 C         2.049017        -0.637066        -1.281224
 O         1.742897         1.362304        -0.015720
 H        -0.207156        -0.273026         1.389065
 H        -0.487303         0.007475        -0.460097
 H        -0.219986        -1.566233         0.020142
 H         2.258728        -0.005884         2.110676
 H         3.237599        -1.256095         0.929205
 H         4.694667         2.165196        -0.439966
 H         5.228635         1.226516         0.994222
 H         3.346889         1.013167        -2.039701
 H         1.650921        -0.034598        -2.164245
 H         2.227460        -1.748666        -1.465929
