19
Iteration:  4037charge 0 multiplicity 1
 C        -0.006700        -0.581100         0.230685
 C         1.466349        -0.165013         0.072166
 C         2.693015        -0.292385         0.938166
 C         3.106172         0.884521         0.140393
 C         4.596883         1.282518         0.199614
 O         4.743253         0.084525        -0.721916
 C         3.350478         0.251196        -1.272089
 C         2.134967        -0.693226        -1.326685
 O         1.698158         1.379599         0.158611
 H        -0.229946        -0.329902         1.254856
 H        -0.799827        -0.147568        -0.416570
 H        -0.047150        -1.670597         0.281580
 H         2.435026        -0.114311         1.959808
 H         3.505337        -1.140611         0.916142
 H         5.043274         2.188237        -0.230803
 H         5.038735         1.185244         1.190612
 H         3.471858         1.118516        -1.948650
 H         1.445409        -0.521255        -2.241513
 H         2.304405        -1.748565        -1.364540
