19
Iteration:  4725charge 0 multiplicity 1
 C         0.039049        -0.473227         0.232182
 C         1.486267        -0.148500         0.126149
 C         2.731972        -0.368783         0.951146
 C         3.099667         0.901836         0.123143
 C         4.583806         1.208729         0.190467
 O         4.754345         0.132447        -0.723096
 C         3.356785         0.302584        -1.183497
 C         2.069829        -0.714819        -1.333978
 O         1.674503         1.302928         0.091716
 H        -0.470649        -0.479081         1.208086
 H        -0.592044         0.210170        -0.359156
 H        -0.187606        -1.436704        -0.151130
 H         2.470688         0.063009         2.013995
 H         3.395481        -1.231381         1.042407
 H         4.914882         2.203096        -0.328949
 H         5.196328         0.853250         1.015721
 H         3.358015         1.078309        -1.954755
 H         1.521715        -0.413724        -2.222016
 H         2.447382        -1.825325        -1.252677
