19
Iteration:  4096charge 0 multiplicity 1
 C        -0.044276        -0.516215         0.267285
 C         1.381135        -0.232493         0.046652
 C         2.513476        -0.397789         1.027280
 C         3.159562         0.766827         0.227101
 C         4.693397         1.270695         0.156575
 O         4.898962         0.258227        -0.891303
 C         3.366987         0.230882        -1.146279
 C         2.108312        -0.668752        -1.284405
 O         1.722863         1.360495         0.049527
 H        -0.273796        -0.044986         1.298754
 H        -0.691471        -0.165470        -0.539591
 H        -0.073289        -1.619989         0.402236
 H         2.115477         0.069899         1.972112
 H         3.125889        -1.228013         1.147076
 H         4.813153         2.234751        -0.220477
 H         5.276317         1.074544         1.093835
 H         3.043119         1.064229        -1.741205
 H         1.515008        -0.468188        -2.115185
 H         2.390161        -1.770895        -1.193667
