19
Iteration:   523
 C         0.022914        -0.626004         0.362663
 C         1.411142        -0.133823        -0.005384
 C         2.564580        -0.412656         0.976097
 C         3.135162         0.803613         0.312912
 C         4.535489         1.293038         0.137767
 O         4.886303         0.120384        -0.777345
 C         3.362998         0.276430        -1.223575
 C         2.055050        -0.485432        -1.470623
 O         1.813441         1.299064         0.176203
 H        -0.210335        -0.269667         1.299092
 H        -0.743996        -0.279927        -0.349294
 H         0.160959        -1.791150         0.290251
 H         2.100499        -0.123952         1.951571
 H         3.065798        -1.387539         1.049477
 H         4.514417         2.209175        -0.400393
 H         5.227878         1.396616         0.969415
 H         3.518213         0.999611        -1.933932
 H         1.436655         0.035434        -2.300576
 H         2.021070        -1.601732        -1.856314
