19
Iteration:  3543
 C        -0.004820        -0.560275         0.213206
 C         1.415546        -0.175831         0.034068
 C         2.588930        -0.328717         1.068279
 C         3.129178         0.840593         0.165574
 C         4.575407         1.218576         0.140167
 O         4.906122         0.125123        -0.779034
 C         3.343293         0.314628        -1.222650
 C         2.077060        -0.677722        -1.310115
 O         1.737214         1.333413         0.149108
 H        -0.556645        -0.128334         1.128024
 H        -0.692050        -0.059063        -0.488983
 H        -0.046071        -1.661299         0.269433
 H         2.343648         0.262425         2.062458
 H         3.261080        -1.154298         1.188948
 H         4.695831         2.273570        -0.393618
 H         5.266375         1.261681         0.933600
 H         3.366042         1.003402        -2.022714
 H         1.596307        -0.434762        -2.266168
 H         2.308043        -1.796945        -1.218952
