19
Iteration:  2927charge 0 multiplicity 1
 C         0.021293        -0.539382         0.218838
 C         1.423918        -0.181255         0.050660
 C         2.607394        -0.325080         1.026292
 C         3.091099         0.838460         0.164185
 C         4.536928         1.249050         0.166433
 O         4.785758         0.123533        -0.815630
 C         3.387882         0.252747        -1.203859
 C         2.159250        -0.688711        -1.275876
 O         1.785186         1.409760         0.170480
 H        -0.466535        -0.070003         1.110110
 H        -0.592613        -0.389161        -0.662985
 H        -0.106285        -1.582021         0.313201
 H         2.398772        -0.036341         2.095613
 H         3.140171        -1.247370         0.898068
 H         4.893011         2.225383        -0.355058
 H         5.071729         1.032412         1.034489
 H         3.262105         0.954329        -2.123468
 H         1.757948        -0.392376        -2.243461
 H         2.103977        -1.812171        -1.325679
