19
Iteration:  3080charge 0 multiplicity 1
 C        -0.005927        -0.461283         0.287401
 C         1.441180        -0.243630        -0.000830
 C         2.609512        -0.359248         0.996860
 C         3.029212         0.834176         0.159096
 C         4.591549         1.137202         0.187444
 O         4.815608         0.149518        -0.856800
 C         3.339587         0.358299        -1.156069
 C         2.227582        -0.699690        -1.284001
 O         1.746812         1.412485         0.117230
 H        -0.592237         0.143540         0.963485
 H        -0.537914        -0.341242        -0.623825
 H        -0.006454        -1.417593         0.680804
 H         2.406049        -0.276018         2.097141
 H         3.275496        -1.244769         0.880472
 H         4.735201         2.176934        -0.140151
 H         4.997916         1.034638         1.106516
 H         3.208937         0.968574        -2.063227
 H         1.544515        -0.629044        -2.164767
 H         2.507291        -1.711402        -1.011972
