19
Iteration:  3966
 C         0.004232        -0.492866         0.308746
 C         1.406416        -0.165111        -0.000925
 C         2.620647        -0.376177         1.022273
 C         3.078005         0.819365         0.117041
 C         4.573358         1.151846         0.217536
 O         4.839978         0.176738        -0.837216
 C         3.288982         0.399618        -1.280168
 C         2.251926        -0.706520        -1.213591
 O         1.679484         1.335251         0.085823
 H        -0.392044         0.035229         1.235696
 H        -0.609547        -0.099180        -0.489186
 H        -0.099206        -1.572344         0.391952
 H         2.617995        -0.132272         2.158269
 H         3.205290        -1.207094         0.884754
 H         4.784810         2.273072         0.074973
 H         5.234124         0.860867         1.093787
 H         3.308968         1.158340        -2.023831
 H         1.701685        -0.767262        -2.095017
 H         2.577394        -1.818408        -1.092970
