19
Iteration:  2631
 C        -0.032463        -0.512977         0.336980
 C         1.455043        -0.201571         0.085941
 C         2.670242        -0.305073         1.058352
 C         3.116775         0.919045         0.181378
 C         4.574542         1.161417         0.171413
 O         4.827895         0.096843        -0.827688
 C         3.351879         0.343950        -1.110449
 C         2.145232        -0.631228        -1.391609
 O         1.677588         1.317202        -0.005160
 H        -0.363953        -0.624922         1.389401
 H        -0.689922         0.153371        -0.326986
 H        -0.258158        -1.602956        -0.049742
 H         2.501248        -0.132831         2.168734
 H         3.149145        -1.325531         0.946598
 H         4.903498         2.188734        -0.119034
 H         5.140563         0.837531         1.019528
 H         3.196119         1.016442        -1.913130
 H         1.611916        -0.295678        -2.316063
 H         2.673568        -1.637382        -1.287524
