19
Iteration:  2221charge 0 multiplicity 1
 C        -0.032424        -0.485057         0.223218
 C         1.489213        -0.237391         0.074679
 C         2.700037        -0.332443         1.021863
 C         3.075792         0.828566         0.143144
 C         4.658078         1.128032         0.142795
 O         4.737400         0.116800        -0.835926
 C         3.282773         0.333911        -1.191948
 C         2.267915        -0.620693        -1.309005
 O         1.656083         1.335669         0.199565
 H        -0.355971         0.237608         1.105259
 H        -0.417125        -0.002063        -0.740176
 H        -0.408022        -1.468481         0.266586
 H         2.459727         0.107890         1.977694
 H         3.369586        -1.160074         1.147148
 H         4.683543         2.222513        -0.140831
 H         5.210959         0.924159         1.191492
 H         3.170961         1.113764        -1.988667
 H         1.677388        -0.309256        -2.267884
 H         2.342631        -1.808821        -1.449730
