19
Iteration:  3781
 C        -0.003495        -0.491776         0.164709
 C         1.464445        -0.249958         0.096509
 C         2.671936        -0.345295         1.040897
 C         3.131030         0.775577         0.180576
 C         4.520437         1.272700         0.137433
 O         4.802400         0.110027        -0.830926
 C         3.333487         0.316149        -1.224717
 C         2.152542        -0.665938        -1.226657
 O         1.718814         1.349200         0.147199
 H        -0.518675         0.159934         0.963858
 H        -0.484447        -0.052936        -0.715462
 H        -0.244999        -1.504764         0.432449
 H         2.606171         0.108511         2.133441
 H         3.416889        -1.147093         1.090216
 H         4.791757         2.208335        -0.334404
 H         4.981825         1.207906         1.116329
 H         3.371186         1.032831        -2.098549
 H         1.575022        -0.401728        -2.056285
 H         2.249074        -1.819737        -1.441492
