19
Iteration:  3070
 C        -0.005909        -0.504269         0.251548
 C         1.424928        -0.225530        -0.014814
 C         2.566147        -0.416491         1.016329
 C         3.136179         0.857894         0.249241
 C         4.578733         1.233302         0.191439
 O         4.734056         0.137452        -0.846557
 C         3.313862         0.324857        -1.189527
 C         2.187926        -0.706319        -1.243022
 O         1.816720         1.409841         0.079934
 H        -0.248763         0.198147         1.035171
 H        -0.632248        -0.497048        -0.623466
 H        -0.145866        -1.488958         0.633913
 H         2.360520        -0.093371         2.043838
 H         3.206743        -1.304681         0.867197
 H         4.849621         2.210068        -0.320168
 H         5.213483         1.064804         1.001517
 H         3.228918         1.251548        -1.840712
 H         1.777325        -0.617347        -2.298730
 H         2.481276        -1.757666        -1.194206
