19
Iteration:  2765charge 0 multiplicity 1
 C        -0.048171        -0.605793         0.231994
 C         1.424471        -0.109058         0.011714
 C         2.580238        -0.362932         0.972921
 C         3.132732         0.825557         0.194216
 C         4.613688         1.248592         0.196060
 O         4.843221         0.160393        -0.828240
 C         3.361193         0.218055        -1.176329
 C         2.089831        -0.647435        -1.227990
 O         1.763710         1.418836         0.108917
 H        -0.239856        -0.201214         1.308892
 H        -0.746669        -0.318133        -0.584082
 H         0.128150        -1.679167         0.135414
 H         2.269780        -0.059095         1.990399
 H         3.321281        -1.157016         0.857580
 H         4.919771         2.104933        -0.411540
 H         5.246949         1.112269         1.001709
 H         3.309355         0.988811        -1.868467
 H         1.403472        -0.628502        -2.117450
 H         2.158009        -1.746518        -1.060529
