19
Iteration:  1366charge 0 multiplicity 1
 C         0.000455        -0.495179         0.188819
 C         1.451412        -0.171227         0.025041
 C         2.690772        -0.401286         1.029212
 C         3.101664         0.870417         0.131511
 C         4.634038         1.257798         0.148348
 O         4.759470         0.136462        -0.779759
 C         3.329686         0.333089        -1.264316
 C         2.142043        -0.641400        -1.310421
 O         1.710956         1.277589         0.231330
 H        -0.413996        -0.177689         1.208077
 H        -0.658862        -0.011016        -0.472122
 H        -0.207741        -1.583442         0.079015
 H         2.397007        -0.074451         2.076419
 H         3.197512        -1.429275         1.093595
 H         4.922880         2.175584        -0.290086
 H         5.070728         1.065812         1.233401
 H         3.268179         1.088125        -1.974660
 H         1.521162        -0.537629        -2.236254
 H         2.503540        -1.684915        -1.146800
