19
Iteration:  2308charge 0 multiplicity 1
 C         0.038444        -0.513305         0.263950
 C         1.435092        -0.161794         0.066573
 C         2.692256        -0.366048         1.031855
 C         3.103705         0.897607         0.183067
 C         4.680910         1.183779         0.141776
 O         4.791878         0.052318        -0.763792
 C         3.365740         0.394293        -1.214163
 C         2.063960        -0.561275        -1.317928
 O         1.641095         1.259932         0.076010
 H        -0.537572        -0.367282         1.291687
 H        -0.624450         0.014114        -0.522457
 H        -0.162458        -1.565389         0.297994
 H         2.473255        -0.202148         2.079630
 H         3.348611        -1.218207         0.934931
 H         4.896878         2.118488        -0.457468
 H         5.225090         1.247886         1.095049
 H         3.473517         1.115722        -1.976239
 H         1.407118        -0.425411        -2.260260
 H         2.337012        -1.713095        -1.166106
