19
Iteration:  3142charge 0 multiplicity 1
 C         0.052095        -0.565444         0.312787
 C         1.454674        -0.104397        -0.040418
 C         2.563313        -0.334907         1.041366
 C         3.082222         0.818083         0.244374
 C         4.583452         1.265709         0.115430
 O         4.750337         0.026433        -0.800541
 C         3.358789         0.243951        -1.129708
 C         2.221169        -0.622787        -1.345859
 O         1.736563         1.434046         0.082509
 H        -0.163485        -0.405903         1.462845
 H        -0.767173        -0.231791        -0.371747
 H         0.090479        -1.688400         0.070413
 H         2.169699        -0.053205         2.052214
 H         3.015527        -1.286224         0.875932
 H         4.682573         2.119760        -0.549370
 H         5.352967         1.363042         1.061355
 H         3.409382         1.020824        -1.820592
 H         1.622355        -0.390267        -2.151754
 H         2.336005        -1.733992        -1.342860
