19
Iteration:    99
 C        -0.035887        -0.490839         0.366869
 C         1.405854        -0.180759         0.068927
 C         2.616087        -0.456933         1.000439
 C         3.114904         0.755488         0.124085
 C         4.593562         1.248225         0.257003
 O         4.770466         0.220364        -0.834868
 C         3.333176         0.354360        -1.271169
 C         2.241894        -0.670265        -1.368283
 O         1.739891         1.331256         0.097675
 H        -0.253791         0.064569         1.274885
 H        -0.638126        -0.166937        -0.438753
 H        -0.168349        -1.582081         0.510407
 H         2.494813        -0.069897         2.019574
 H         2.962391        -1.487226         0.861955
 H         4.916025         2.239350        -0.183584
 H         5.154958         1.011753         1.183236
 H         3.228492         1.183468        -1.862414
 H         1.604323        -0.592186        -2.240004
 H         2.624869        -1.654349        -1.295203
