19
Iteration:  2797
 C         0.036158        -0.466619         0.225609
 C         1.492870        -0.257182         0.088492
 C         2.650647        -0.334035         1.083056
 C         3.066100         0.887193         0.117529
 C         4.612442         1.236622         0.134727
 O         4.723596         0.058293        -0.732407
 C         3.337263         0.351274        -1.260468
 C         2.179982        -0.646187        -1.340525
 O         1.700028         1.262525         0.112419
 H        -0.367115        -0.317773         1.322305
 H        -0.557371         0.200055        -0.470860
 H        -0.394990        -1.452911         0.162435
 H         2.297601         0.102348         2.029677
 H         3.439676        -1.002140         1.211399
 H         4.969766         2.114034        -0.455933
 H         5.146161         1.233159         1.002463
 H         3.465254         1.174841        -1.911541
 H         1.424380        -0.294760        -2.060062
 H         2.617384        -1.670459        -1.317697
