19
Iteration:  2463charge 0 multiplicity 1
 C         0.040080        -0.560014         0.310457
 C         1.461393        -0.181354         0.094992
 C         2.537173        -0.378661         1.157581
 C         3.136677         0.790722         0.153297
 C         4.601551         1.231690         0.159095
 O         4.851377         0.099359        -0.779156
 C         3.314103         0.325045        -1.288103
 C         2.119536        -0.553499        -1.388169
 O         1.738847         1.340291         0.052226
 H        -0.219273        -0.504662         1.440052
 H        -0.696972        -0.022829        -0.300349
 H        -0.129154        -1.649847        -0.130743
 H         2.285669         0.072335         2.101095
 H         3.021771        -1.289552         1.283686
 H         4.704616         2.110091        -0.429309
 H         5.318745         1.228577         1.040195
 H         3.285469         1.210670        -1.894661
 H         1.477342        -0.157768        -2.241047
 H         2.313588        -1.639410        -1.455300
