19
Iteration:  3083
 C        -0.018764        -0.452598         0.298570
 C         1.467197        -0.211379         0.030487
 C         2.632768        -0.336330         0.983241
 C         3.012315         0.825608         0.147902
 C         4.586971         1.122433         0.191229
 O         4.835763         0.158437        -0.855653
 C         3.359581         0.336661        -1.161994
 C         2.228149        -0.704253        -1.307269
 O         1.704579         1.407687         0.132389
 H        -0.559301         0.200415         0.946427
 H        -0.566684        -0.348149        -0.682715
 H        -0.032035        -1.537674         0.660804
 H         2.391728        -0.267749         1.996741
 H         3.238980        -1.264111         0.938548
 H         4.751906         2.232758        -0.146907
 H         5.017697         0.883703         1.212231
 H         3.250401         0.952056        -2.150688
 H         1.409858        -0.670203        -2.182110
 H         2.563432        -1.713431        -1.034528
