19
Iteration:  1570charge 0 multiplicity 1
 C         0.061514        -0.553355         0.264581
 C         1.458741        -0.154940         0.017851
 C         2.629270        -0.358376         1.010264
 C         3.130171         0.820880         0.192224
 C         4.624301         1.172629         0.205164
 O         4.785987         0.118438        -0.779654
 C         3.329868         0.353988        -1.176866
 C         2.111947        -0.620284        -1.335643
 O         1.663095         1.345426         0.093083
 H        -0.122327        -0.504978         1.401364
 H        -0.586315         0.181079        -0.270038
 H        -0.041352        -1.687719        -0.076643
 H         2.326934        -0.143034         2.031340
 H         3.226967        -1.267052         0.932840
 H         4.651400         2.214873        -0.370196
 H         5.309181         1.074217         1.026551
 H         3.423035         1.188127        -1.962589
 H         1.546508        -0.217822        -2.268110
 H         2.255944        -1.704908        -1.414445
