19
Iteration:  4939charge 0 multiplicity 1
 C        -0.003064        -0.482173         0.376309
 C         1.441461        -0.092017        -0.056452
 C         2.497789        -0.425836         0.994688
 C         3.103588         0.815027         0.220924
 C         4.593377         1.232696         0.226645
 O         4.784998         0.139324        -0.869757
 C         3.374620         0.293153        -1.212959
 C         2.271380        -0.647833        -1.318857
 O         1.721081         1.327323         0.087436
 H        -0.299716        -0.043751         1.247524
 H        -0.675949        -0.147072        -0.379850
 H        -0.029937        -1.597708         0.454883
 H         2.032240         0.058267         1.899205
 H         3.038835        -1.331606         1.072815
 H         4.856613         2.224913        -0.196953
 H         5.189349         0.906574         1.198193
 H         3.492402         0.923230        -2.159692
 H         1.603408        -0.632865        -2.164448
 H         2.672316        -1.658351        -1.049986
