19
Iteration:  3464
 C         0.027846        -0.484275         0.340559
 C         1.479464        -0.208339         0.025281
 C         2.557592        -0.294552         1.017209
 C         3.094202         0.881236         0.146706
 C         4.524753         1.189365         0.223229
 O         4.789740         0.087198        -0.821053
 C         3.363574         0.312242        -1.245522
 C         2.262294        -0.709556        -1.347070
 O         1.695016         1.383151         0.092253
 H        -0.144396        -0.127573         1.333741
 H        -0.639079        -0.171528        -0.475032
 H        -0.173394        -1.608445         0.300284
 H         2.420794         0.097934         1.980163
 H         3.204694        -1.220352         0.975245
 H         4.853449         2.195697        -0.165828
 H         4.963435         0.852677         1.198704
 H         3.281763         1.045278        -1.995910
 H         1.519656        -0.606600        -2.091076
 H         2.566794        -1.732066        -1.155140
