19
Iteration:  4573charge 0 multiplicity 1
 C         0.017291        -0.527407         0.339440
 C         1.453007        -0.143736        -0.017863
 C         2.561845        -0.271011         1.017595
 C         3.120244         0.744583         0.206484
 C         4.602474         1.243254         0.174007
 O         4.835835         0.130690        -0.836754
 C         3.428142         0.260732        -1.168966
 C         2.098301        -0.598743        -1.323958
 O         1.723447         1.290782         0.023374
 H        -0.203100        -0.005399         1.353417
 H        -0.825525        -0.369994        -0.377743
 H        -0.110995        -1.618334         0.562983
 H         2.041582        -0.025103         1.983087
 H         3.050617        -1.189682         1.304171
 H         4.861146         2.303939         0.113294
 H         5.203251         0.956627         1.051289
 H         3.329013         1.155540        -1.838465
 H         1.500218        -0.212982        -2.113483
 H         2.163197        -1.750544        -1.581432
