19
Iteration:  1494charge 0 multiplicity 1
 C        -0.111278        -0.590710         0.236130
 C         1.376884        -0.225648         0.018009
 C         2.534081        -0.385736         1.051637
 C         3.156101         0.698306         0.305116
 C         4.658782         1.227996         0.146770
 O         4.822575         0.233810        -0.893662
 C         3.386383         0.339864        -1.149380
 C         2.119372        -0.638579        -1.348057
 O         1.851518         1.388977         0.141412
 H        -0.465796         0.058968         1.105680
 H        -0.640712        -0.443277        -0.750569
 H        -0.136622        -1.771197         0.534704
 H         2.218481         0.020161         2.007399
 H         3.046895        -1.344184         1.099861
 H         4.528705         2.315990        -0.240969
 H         5.411293         1.332428         0.812858
 H         3.421976         1.257310        -1.911116
 H         1.374116        -0.322785        -2.108433
 H         2.346879        -1.692440        -1.461644
