19
Iteration:  3224
 C        -0.027070        -0.462812         0.382804
 C         1.398327        -0.179712        -0.050659
 C         2.490607        -0.333624         1.026736
 C         3.068455         0.776012         0.229013
 C         4.589153         1.236151         0.182715
 O         4.893556         0.127642        -0.879561
 C         3.357392         0.364526        -1.216001
 C         2.263641        -0.763812        -1.341237
 O         1.749065         1.366849         0.111978
 H        -0.424199         0.016473         1.282951
 H        -0.737531        -0.141270        -0.459549
 H        -0.193904        -1.579855         0.408772
 H         2.323779        -0.081613         2.084361
 H         2.950615        -1.404750         1.215473
 H         4.615842         2.317955        -0.320739
 H         5.202236         1.119726         1.066778
 H         3.480290         1.251322        -1.976676
 H         1.685139        -0.767589        -2.371945
 H         2.462056        -1.800026        -1.039980
