19
Iteration:  3026
 C        -0.046421        -0.583589         0.206408
 C         1.427088        -0.185614         0.055926
 C         2.632508        -0.332950         1.064442
 C         3.119919         0.855527         0.160979
 C         4.609858         1.230495         0.151031
 O         4.862726         0.109374        -0.848350
 C         3.404462         0.243473        -1.171033
 C         2.140060        -0.608397        -1.250679
 O         1.700874         1.377280         0.113106
 H        -0.461747        -0.298979         1.174482
 H        -0.630872        -0.024386        -0.539210
 H        -0.357639        -1.619788         0.197745
 H         2.357725         0.071509         2.061065
 H         3.117568        -1.285852         0.934231
 H         4.748094         2.334503        -0.217381
 H         5.120507         1.116710         1.043475
 H         3.440731         1.005310        -2.046911
 H         1.341484        -0.311013        -1.998023
 H         2.191484        -1.721333        -1.277457
