19
Iteration:  3688charge 0 multiplicity 1
 C        -0.007250        -0.567831         0.321488
 C         1.402920        -0.183879         0.021461
 C         2.622743        -0.304758         0.998447
 C         3.148377         0.901396         0.124309
 C         4.646632         1.169713         0.195104
 O         4.841599         0.113073        -0.810249
 C         3.409963         0.332323        -1.185040
 C         2.101144        -0.637233        -1.225775
 O         1.623157         1.315944         0.022168
 H        -0.368608        -0.266706         1.289709
 H        -0.656088         0.021208        -0.359029
 H        -0.079761        -1.681571         0.206063
 H         2.394033        -0.101333         2.001805
 H         3.434670        -1.014436         1.063691
 H         4.907613         2.198968        -0.183579
 H         5.105516         1.014299         1.221657
 H         3.458092         1.050131        -1.984819
 H         1.496213        -0.455337        -2.186774
 H         2.303080        -1.665452        -1.290299
