19
Iteration:  3983
 C         0.019406        -0.550165         0.326379
 C         1.454893        -0.172633         0.016769
 C         2.580904        -0.327299         1.016391
 C         3.125683         0.879470         0.230789
 C         4.583681         1.253921         0.181538
 O         4.727312         0.160366        -0.845089
 C         3.392498         0.240638        -1.190826
 C         2.202085        -0.703926        -1.417115
 O         1.739468         1.341870         0.146106
 H        -0.375687        -0.088177         1.230505
 H        -0.737285        -0.168021        -0.426802
 H        -0.092506        -1.650554         0.256413
 H         2.244338         0.189355         1.884841
 H         3.043514        -1.418356         1.136264
 H         4.928429         2.119225        -0.316880
 H         5.023349         1.174765         1.192585
 H         3.394392         1.075459        -1.984920
 H         1.587522        -0.512201        -2.355951
 H         2.534049        -1.714783        -1.226318
