19
Iteration:  2310charge 0 multiplicity 1
 C         0.029983        -0.511110         0.251577
 C         1.436310        -0.166648         0.074281
 C         2.709939        -0.356552         1.029281
 C         3.088201         0.916773         0.188449
 C         4.667663         1.191248         0.147632
 O         4.775903         0.041549        -0.777671
 C         3.366770         0.385921        -1.210260
 C         2.085393        -0.570186        -1.310023
 O         1.645331         1.261088         0.080349
 H        -0.486044        -0.312629         1.248831
 H        -0.596791        -0.040566        -0.474804
 H        -0.196417        -1.570203         0.303556
 H         2.472241        -0.239214         2.078030
 H         3.342724        -1.211223         0.899500
 H         4.926706         2.074481        -0.450533
 H         5.275734         1.213356         1.135484
 H         3.467116         1.176650        -1.985607
 H         1.480996        -0.406323        -2.276273
 H         2.287611        -1.719993        -1.198342
