19
Iteration:  2507
 C         0.062120        -0.499437         0.286544
 C         1.416705        -0.118513         0.046264
 C         2.641696        -0.459208         0.956851
 C         3.088332         0.879559         0.196777
 C         4.677611         1.170129         0.193769
 O         4.792083         0.142394        -0.800215
 C         3.328675         0.423822        -1.213763
 C         2.125702        -0.720249        -1.285450
 O         1.655686         1.397838         0.074288
 H        -0.345939         0.048452         1.189249
 H        -0.625123        -0.400671        -0.533922
 H         0.017801        -1.665272         0.423458
 H         2.572905        -0.247761         1.983909
 H         3.048404        -1.387451         0.803968
 H         5.044050         2.114612        -0.062805
 H         4.992288         0.727471         1.185316
 H         3.341687         0.994989        -2.087953
 H         1.364996        -0.782016        -2.130208
 H         2.658994        -1.667208        -1.156924
