19
Iteration:  2851
 C        -0.025438        -0.590418         0.324993
 C         1.439636        -0.120431         0.003149
 C         2.513219        -0.345179         0.974788
 C         3.145747         0.778662         0.135386
 C         4.567416         1.235483         0.248857
 O         4.874044         0.216037        -0.832065
 C         3.391086         0.210778        -1.231322
 C         2.090468        -0.647921        -1.281217
 O         1.821811         1.378227         0.077713
 H        -0.506444        -0.193099         1.285211
 H        -0.918729        -0.262570        -0.226786
 H        -0.120810        -1.649289         0.377325
 H         2.334542         0.165498         1.921946
 H         2.934181        -1.227391         1.212758
 H         4.778743         2.256058        -0.197901
 H         5.108567         1.069903         1.104755
 H         3.345888         0.977714        -2.038125
 H         1.433790        -0.658446        -2.152887
 H         2.348499        -1.752381        -1.145264
