19
Iteration:   502charge 0 multiplicity 1
 C         0.009826        -0.589925         0.256422
 C         1.417953        -0.164082         0.065169
 C         2.594735        -0.524924         0.943601
 C         3.117797         0.772254         0.170735
 C         4.605290         1.316098         0.093445
 O         4.785886         0.116468        -0.762907
 C         3.366316         0.342190        -1.175321
 C         2.128094        -0.497885        -1.301250
 O         1.758268         1.372246         0.184053
 H        -0.405312        -0.137648         1.051791
 H        -0.674695        -0.417076        -0.608627
 H        -0.010562        -1.732510         0.488865
 H         2.634966        -0.213757         1.998590
 H         3.054089        -1.501935         0.731152
 H         4.744040         2.272354        -0.463134
 H         5.288675         1.224503         0.888661
 H         3.353853         1.208122        -1.686522
 H         1.492261        -0.248028        -2.214798
 H         2.264265        -1.634509        -1.378903
