19
Iteration:  4981
 C        -0.049731        -0.543238         0.178704
 C         1.475064        -0.172261         0.106707
 C         2.642487        -0.320852         1.038568
 C         3.134424         0.843842         0.158096
 C         4.587227         1.311160         0.173360
 O         4.810395         0.066785        -0.793158
 C         3.379328         0.287672        -1.257920
 C         2.071098        -0.583644        -1.236768
 O         1.766135         1.295523         0.116516
 H        -0.531389         0.130106         0.825211
 H        -0.560860        -0.615109        -0.825359
 H        -0.186487        -1.667278         0.632893
 H         2.356228        -0.180677         2.091039
 H         3.082676        -1.342928         1.062064
 H         4.792462         2.257549        -0.223340
 H         5.157406         1.054649         1.136573
 H         3.386908         0.976343        -2.115187
 H         1.671148        -0.122730        -2.190232
 H         2.060947        -1.677171        -1.320669
