19
Iteration:  1779
 C         0.001995        -0.621257         0.355262
 C         1.379413        -0.167908         0.027235
 C         2.505797        -0.327145         1.027222
 C         3.071499         0.845788         0.227039
 C         4.570994         1.204439         0.191751
 O         4.858150         0.153615        -0.839094
 C         3.431393         0.245281        -1.163007
 C         2.140878        -0.662293        -1.430684
 O         1.800602         1.450097         0.101404
 H        -0.180800        -0.601947         1.462676
 H        -0.722442        -0.156354        -0.180847
 H         0.019643        -1.738428         0.058660
 H         2.147855        -0.042875         2.026960
 H         3.141772        -1.235980         0.915449
 H         5.008122         2.170538        -0.306244
 H         5.034394         0.957904         1.087607
 H         3.219677         1.031585        -2.009689
 H         1.578352         0.053314        -2.305774
 H         2.320881        -1.813246        -1.589398
