19
Iteration:  1663charge 0 multiplicity 1
 C        -0.036090        -0.551773         0.271813
 C         1.417414        -0.275382        -0.000513
 C         2.577851        -0.356612         1.030848
 C         3.077837         0.869326         0.233837
 C         4.665935         1.190634         0.206931
 O         4.819365         0.177021        -0.914175
 C         3.308123         0.373074        -1.165390
 C         2.143928        -0.674427        -1.363786
 O         1.767661         1.358254         0.143188
 H        -0.352567         0.133356         1.058982
 H        -0.546877        -0.252702        -0.731490
 H        -0.240421        -1.571516         0.599508
 H         2.167548        -0.054550         2.008017
 H         3.240846        -1.261410         1.101694
 H         5.088485         2.162019        -0.038556
 H         5.156565         0.822809         1.213377
 H         3.284337         1.275859        -1.771108
 H         1.693246        -0.575986        -2.239542
 H         2.582928        -1.657412        -1.261784
