19
Iteration:  2821
 C         0.035662        -0.470632         0.317101
 C         1.454944        -0.162306         0.011517
 C         2.622900        -0.330775         0.966185
 C         3.116030         0.894989         0.221613
 C         4.593946         1.243232         0.162167
 O         4.755993         0.095713        -0.770899
 C         3.332157         0.268589        -1.155622
 C         2.224328        -0.723444        -1.365894
 O         1.654326         1.335946         0.062276
 H        -0.264068        -0.383152         1.422902
 H        -0.671900         0.135142        -0.287111
 H        -0.227981        -1.529945         0.206314
 H         2.402668        -0.111301         1.992286
 H         3.264796        -1.262528         0.876664
 H         4.927528         2.106542        -0.374339
 H         5.261954         1.149960         1.006716
 H         3.372787         1.057560        -1.820864
 H         1.585186        -0.512535        -2.219250
 H         2.547323        -1.710136        -1.178824
