19
Iteration:  1822
 C         0.049884        -0.498952         0.207607
 C         1.483406        -0.181874         0.041937
 C         2.700191        -0.374851         1.073630
 C         3.079936         0.893449         0.181193
 C         4.606860         1.183557         0.189594
 O         4.703858         0.062256        -0.828164
 C         3.322125         0.367385        -1.189288
 C         2.207608        -0.631023        -1.307787
 O         1.687973         1.346655         0.112462
 H        -0.513896        -0.028311         1.054022
 H        -0.529887        -0.359581        -0.636831
 H        -0.073382        -1.619956         0.392324
 H         2.464674        -0.212518         2.147395
 H         3.324095        -1.288264         0.872132
 H         4.824430         2.272941        -0.125797
 H         5.098655         0.981018         1.078887
 H         3.138385         1.225987        -1.967611
 H         1.457518        -0.384538        -2.211799
 H         2.466516        -1.739373        -1.340361
