19
Iteration:  2336
 C         0.078238        -0.503486         0.247279
 C         1.473277        -0.265721         0.022564
 C         2.638605        -0.327871         0.992959
 C         3.092483         0.864885         0.161416
 C         4.584354         1.153085         0.183891
 O         4.710606         0.108947        -0.815193
 C         3.276587         0.346471        -1.228466
 C         2.164373        -0.715871        -1.353503
 O         1.769097         1.453372         0.228794
 H        -0.396472         0.008721         1.004375
 H        -0.537532        -0.341049        -0.630648
 H        -0.136556        -1.573090         0.484447
 H         2.334522         0.074732         1.995566
 H         3.280033        -1.255461         1.090736
 H         4.834246         2.146975        -0.232944
 H         5.076864         1.025090         1.159895
 H         3.355283         1.125991        -2.082543
 H         1.593025        -0.669170        -2.251874
 H         2.552076        -1.673315        -1.292480
