19
Iteration:  1958
 C         0.030991        -0.584391         0.241754
 C         1.468348        -0.166443         0.010783
 C         2.640336        -0.320628         0.959494
 C         3.117818         0.882210         0.212656
 C         4.587760         1.199568         0.150596
 O         4.755802         0.090863        -0.747841
 C         3.314802         0.334713        -1.198934
 C         2.130953        -0.646753        -1.327349
 O         1.737288         1.344080         0.170940
 H        -0.221392        -0.411023         1.227159
 H        -0.526394         0.031716        -0.510747
 H        -0.071562        -1.574072         0.023805
 H         2.376150         0.131604         1.912511
 H         3.255349        -1.188092         0.987499
 H         4.722316         2.128563        -0.286911
 H         5.256837         1.209265         1.077160
 H         3.421793         0.974815        -2.086396
 H         1.431189        -0.399612        -2.148752
 H         2.300177        -1.760974        -1.373957
