19
Iteration:  3904charge 0 multiplicity 1
 C        -0.007089        -0.559151         0.281282
 C         1.435302        -0.097397        -0.024682
 C         2.514624        -0.373640         1.050000
 C         3.137080         0.749180         0.281260
 C         4.609223         1.344807         0.091179
 O         4.818603         0.087205        -0.818966
 C         3.333327         0.341127        -1.194812
 C         2.140772        -0.634971        -1.295024
 O         1.811715         1.311387         0.127043
 H        -0.525121        -0.284199         1.176981
 H        -0.484951        -0.309503        -0.670814
 H        -0.094006        -1.662506         0.197178
 H         2.336311        -0.078731         2.142254
 H         3.118640        -1.332358         1.043173
 H         4.516981         2.276311        -0.487073
 H         5.305019         1.329506         0.858663
 H         3.183646         1.247993        -1.915440
 H         1.552930        -0.661891        -2.280666
 H         2.379253        -1.659542        -1.087801
