19
Iteration:  3484
 C         0.003086        -0.512051         0.392642
 C         1.388999        -0.056139        -0.017608
 C         2.633149        -0.335305         0.949502
 C         3.110716         0.898221         0.117568
 C         4.620793         1.263593         0.220676
 O         4.728390         0.058353        -0.720096
 C         3.353619         0.328691        -1.247161
 C         2.254447        -0.751321        -1.393732
 O         1.646447         1.314780         0.126852
 H        -0.088134        -0.230915         1.410833
 H        -0.667917        -0.016846        -0.320398
 H        -0.168666        -1.594795         0.203523
 H         2.356975        -0.011847         1.898290
 H         3.281704        -1.237434         1.165774
 H         4.982874         2.189640        -0.301337
 H         5.283343         0.886928         1.134183
 H         3.358057         1.048965        -2.115588
 H         2.101679        -0.775456        -2.488398
 H         2.502217        -1.772321        -1.183013
