19
Iteration:  3673charge 0 multiplicity 1
 C        -0.064759        -0.524587         0.314082
 C         1.486759        -0.170595         0.063163
 C         2.720111        -0.251856         0.985722
 C         3.086507         0.882752         0.160116
 C         4.625260         1.251653         0.189568
 O         4.774041         0.027105        -0.733651
 C         3.325136         0.341581        -1.250909
 C         2.221276        -0.666770        -1.400690
 O         1.629812         1.303135         0.113452
 H        -0.216200        -0.327783         1.414248
 H        -0.686387        -0.165777        -0.502011
 H        -0.308096        -1.582903         0.248463
 H         2.451701         0.184022         2.060679
 H         3.109801        -1.260465         1.016305
 H         5.028602         2.150076        -0.372865
 H         5.125149         1.017736         1.077255
 H         3.372312         1.110948        -2.044704
 H         1.598355        -0.527402        -2.224928
 H         2.583497        -1.747332        -1.307395
