19
Iteration:  1712charge 0 multiplicity 1
 C        -0.038854        -0.516107         0.161389
 C         1.484834        -0.212639        -0.004749
 C         2.644797        -0.383370         1.068711
 C         3.122581         0.840672         0.197736
 C         4.554907         1.261660         0.182904
 O         4.801517         0.121942        -0.831944
 C         3.315041         0.320646        -1.218498
 C         2.107197        -0.684797        -1.294553
 O         1.808960         1.366574         0.191354
 H        -0.279592        -0.148636         1.179027
 H        -0.668410        -0.133086        -0.545273
 H        -0.080807        -1.609852         0.212000
 H         2.231930        -0.113341         2.053990
 H         3.125794        -1.361824         1.048209
 H         4.560520         2.295423        -0.290698
 H         5.121958         1.169752         1.054517
 H         3.430002         1.200408        -1.892578
 H         1.433903        -0.376379        -2.248592
 H         2.403472        -1.770194        -1.261881
