19
Iteration:  3681
 C        -0.058580        -0.548007         0.317995
 C         1.458065        -0.187103         0.031673
 C         2.695534        -0.263602         1.001895
 C         3.161308         0.912043         0.127638
 C         4.601726         1.209230         0.183597
 O         4.826068         0.058023        -0.775409
 C         3.393169         0.333612        -1.207725
 C         2.134262        -0.667209        -1.300097
 O         1.601295         1.308023         0.071578
 H        -0.457552        -0.190631         1.290964
 H        -0.845953        -0.021336        -0.276946
 H        -0.060916        -1.639744         0.175618
 H         2.278222         0.064439         1.975966
 H         3.338743        -1.243585         0.885762
 H         4.972692         2.113734        -0.195581
 H         5.139201         0.999962         1.164540
 H         3.395499         1.211898        -1.939768
 H         1.436841        -0.446121        -2.137765
 H         2.665207        -1.693440        -1.369434
