19
Iteration:  3071charge 0 multiplicity 1
 C        -0.000358        -0.494446         0.254796
 C         1.419265        -0.235093        -0.018998
 C         2.566774        -0.415655         1.020550
 C         3.128884         0.861606         0.241359
 C         4.575429         1.220251         0.189135
 O         4.741690         0.137770        -0.848447
 C         3.312237         0.328175        -1.188653
 C         2.192749        -0.704734        -1.237251
 O         1.814652         1.410769         0.081878
 H        -0.292329         0.180542         1.036921
 H        -0.629897        -0.486330        -0.646510
 H        -0.136230        -1.510962         0.663660
 H         2.380613        -0.112207         2.031625
 H         3.225321        -1.281821         0.843372
 H         4.848602         2.228420        -0.312814
 H         5.211709         1.076760         1.054061
 H         3.224551         1.263967        -1.869436
 H         1.780335        -0.610258        -2.320454
 H         2.472050        -1.762597        -1.173875
