19
Iteration:  4766charge 0 multiplicity 1
 C        -0.023337        -0.507163         0.303942
 C         1.384715        -0.128709         0.009582
 C         2.559331        -0.397365         1.024014
 C         3.098023         0.750466         0.250312
 C         4.616427         1.247497         0.098148
 O         4.791978         0.119878        -0.794241
 C         3.347266         0.336307        -1.184597
 C         2.221890        -0.637069        -1.371873
 O         1.789086         1.351354         0.107458
 H        -0.617738        -0.135604         1.263868
 H        -0.518947        -0.470832        -0.666467
 H         0.099132        -1.595079         0.384498
 H         2.414676        -0.081674         2.121246
 H         2.997261        -1.336546         1.198874
 H         4.620832         2.209965        -0.395882
 H         5.158947         1.304701         0.985763
 H         3.339065         1.150649        -1.894998
 H         1.634416        -0.345454        -2.208845
 H         2.453421        -1.725104        -1.182092
