19
Iteration:  4599charge 0 multiplicity 1
 C        -0.015320        -0.480439         0.265058
 C         1.465587        -0.200668         0.057204
 C         2.635213        -0.394289         1.006622
 C         3.087004         0.799980         0.196278
 C         4.635734         1.207444         0.114373
 O         4.794286         0.098659        -0.771171
 C         3.336139         0.341292        -1.211688
 C         2.189494        -0.655940        -1.318828
 O         1.704305         1.415784         0.091855
 H        -0.463900         0.137712         0.997277
 H        -0.681616        -0.616421        -0.642431
 H        -0.148932        -1.557601         0.777138
 H         2.344874        -0.171847         1.999255
 H         3.053465        -1.435415         1.102460
 H         4.777579         2.230595        -0.252134
 H         5.288923         1.149134         1.066027
 H         3.294551         1.199626        -1.892413
 H         1.410915        -0.435116        -2.135524
 H         2.470751        -1.656455        -1.287825
