19
Iteration:  1746
 C         0.044758        -0.442932         0.251557
 C         1.428495        -0.152305         0.071227
 C         2.673487        -0.391650         0.985108
 C         3.111781         0.912771         0.147782
 C         4.658312         1.211658         0.205978
 O         4.761098         0.086193        -0.737383
 C         3.332878         0.424663        -1.265644
 C         2.179077        -0.661805        -1.305399
 O         1.618812         1.232218         0.115683
 H        -0.246681        -0.291303         1.333249
 H        -0.627122         0.115799        -0.246235
 H        -0.161129        -1.533869         0.003666
 H         2.393960        -0.302762         2.045549
 H         3.236251        -1.340053         0.938913
 H         5.136056         2.199587        -0.202020
 H         5.079800         1.036626         1.128303
 H         3.275661         1.192945        -2.163938
 H         1.405102        -0.742696        -2.330663
 H         2.607305        -1.750858        -1.470152
