19
Iteration:  2029
 C        -0.011186        -0.408687         0.255799
 C         1.474689        -0.183099         0.049867
 C         2.680208        -0.366473         0.961790
 C         3.090818         0.860219         0.109456
 C         4.503872         1.092387         0.285877
 O         4.742151         0.165417        -0.880412
 C         3.361420         0.369020        -1.293553
 C         2.266290        -0.661884        -1.246113
 O         1.684136         1.285456         0.196335
 H        -0.330407         0.320325         1.093425
 H        -0.372658        -0.255799        -0.715146
 H        -0.062888        -1.514505         0.648064
 H         2.296512        -0.113316         1.970485
 H         3.263957        -1.341842         0.876595
 H         4.760251         2.130995        -0.090027
 H         5.068591         0.944090         1.157026
 H         3.196338         1.019062        -2.085490
 H         1.650195        -0.704922        -2.128841
 H         2.640035        -1.632974        -1.086758
