19
Iteration:  4809charge 0 multiplicity 1
 C        -0.102168        -0.525768         0.311568
 C         1.469293        -0.211126         0.083677
 C         2.617161        -0.296486         1.014304
 C         3.113890         0.871711         0.114971
 C         4.598387         1.098044         0.288677
 O         4.832304         0.228872        -0.865094
 C         3.311349         0.310028        -1.258246
 C         2.189258        -0.678814        -1.327307
 O         1.723819         1.320941         0.077440
 H        -0.293545         0.384333         1.133455
 H        -0.617227        -0.401188        -0.635654
 H        -0.217554        -1.521627         0.783742
 H         2.344281        -0.101420         2.118944
 H         3.270170        -1.156261         0.955262
 H         5.094912         2.050079         0.114248
 H         5.081611         0.744195         1.247075
 H         3.260672         1.082245        -2.036458
 H         1.648313        -0.437267        -2.216499
 H         2.490465        -1.767019        -1.426143
