19
Iteration:  4143charge 0 multiplicity 1
 C        -0.067924        -0.521575         0.197739
 C         1.455075        -0.202040         0.036216
 C         2.712511        -0.379242         1.018971
 C         3.135049         0.922501         0.209620
 C         4.619637         1.279993         0.129038
 O         4.752382         0.053420        -0.787388
 C         3.319570         0.421232        -1.190702
 C         2.165227        -0.741159        -1.220590
 O         1.704895         1.321113         0.129659
 H        -0.421394         0.065534         1.048323
 H        -0.521996         0.003261        -0.707115
 H        -0.352298        -1.626419         0.211076
 H         2.592794        -0.180846         2.074544
 H         3.157299        -1.337219         0.754159
 H         4.756234         2.299775        -0.398109
 H         5.213058         1.149488         1.001205
 H         3.246719         1.141416        -2.085533
 H         1.676812        -0.683962        -2.277141
 H         2.592094        -1.700283        -1.081542
