19
Iteration:  3006charge 0 multiplicity 1
 C         0.032726        -0.500402         0.237734
 C         1.453127        -0.111189         0.076472
 C         2.701622        -0.321965         0.957083
 C         3.088707         0.859753         0.163703
 C         4.594366         1.221926         0.221125
 O         4.717749         0.137590        -0.722046
 C         3.313711         0.320440        -1.211872
 C         2.099195        -0.763217        -1.329883
 O         1.758183         1.318501         0.072497
 H        -0.237213        -0.437502         1.313438
 H        -0.652650         0.231077        -0.280582
 H         0.008308        -1.641920         0.125178
 H         2.329123         0.001946         1.911198
 H         3.264485        -1.257805         0.922124
 H         5.159090         2.147702        -0.263306
 H         5.193583         0.958862         1.119055
 H         3.224239         1.074409        -2.094511
 H         1.415659        -0.617023        -2.293432
 H         2.602209        -1.737488        -1.263494
