19
Iteration:  1214
 C        -0.009265        -0.603673         0.252173
 C         1.428607        -0.164312         0.049487
 C         2.610118        -0.395375         0.997281
 C         3.154209         0.799615         0.187737
 C         4.522314         1.242654         0.154653
 O         4.864486         0.123672        -0.741547
 C         3.292481         0.325627        -1.221100
 C         2.094014        -0.554576        -1.305683
 O         1.809028         1.397296         0.083768
 H        -0.371796        -0.656621         1.337824
 H        -0.796307        -0.231574        -0.316604
 H         0.001130        -1.631217         0.060038
 H         2.412023        -0.258478         2.061751
 H         3.165475        -1.355132         0.865891
 H         4.777293         2.215654        -0.380632
 H         5.218023         1.144581         1.117851
 H         3.260842         1.157926        -1.895318
 H         1.372760        -0.389759        -2.164452
 H         2.406788        -1.642966        -1.362260
