19
Iteration:  4145charge 0 multiplicity 1
 C        -0.062015        -0.521309         0.197505
 C         1.443492        -0.218843         0.047517
 C         2.698480        -0.373641         1.012397
 C         3.127169         0.947973         0.219448
 C         4.636727         1.273227         0.125634
 O         4.754591         0.052085        -0.784236
 C         3.327868         0.421221        -1.202163
 C         2.163604        -0.731002        -1.221825
 O         1.699579         1.312143         0.123477
 H        -0.358872         0.076533         1.031537
 H        -0.540869         0.009886        -0.664685
 H        -0.323116        -1.595994         0.197094
 H         2.573325        -0.222400         2.053123
 H         3.229199        -1.370906         0.765025
 H         4.764624         2.331317        -0.377981
 H         5.263241         1.146682         1.017177
 H         3.184279         1.098051        -2.075962
 H         1.698409        -0.665613        -2.283020
 H         2.543963        -1.726709        -1.053128
