19
Iteration:  2071
 C         0.044922        -0.562100         0.201719
 C         1.431119        -0.127936         0.014242
 C         2.505018        -0.361842         1.046440
 C         3.114978         0.761746         0.269969
 C         4.611314         1.239583         0.098016
 O         4.822712         0.119531        -0.879354
 C         3.394945         0.280359        -1.115993
 C         2.121767        -0.588878        -1.256173
 O         1.732625         1.348146         0.109077
 H        -0.355867        -0.358870         1.314334
 H        -0.606568        -0.141072        -0.521803
 H        -0.095539        -1.715087         0.261695
 H         2.390981         0.070603         2.068262
 H         3.188425        -1.302136         0.938185
 H         4.752440         2.271780        -0.297544
 H         5.404959         1.149390         0.951616
 H         3.328476         1.126044        -1.843472
 H         1.609267        -0.156119        -2.097214
 H         2.137540        -1.638623        -1.376253
