19
Iteration:  3705
 C         0.058620        -0.597754         0.305024
 C         1.477934        -0.117470         0.043574
 C         2.579391        -0.319119         1.052600
 C         3.093651         0.836475         0.187429
 C         4.646411         1.210490         0.221866
 O         4.804272         0.210068        -0.822234
 C         3.329849         0.209641        -1.187742
 C         2.109819        -0.687194        -1.323749
 O         1.735423         1.377147        -0.004367
 H        -0.363252        -0.204354         1.302444
 H        -0.743494        -0.076588        -0.247028
 H         0.071114        -1.675019         0.190691
 H         2.186706         0.168962         2.068691
 H         2.740393        -1.397466         0.918070
 H         5.054176         2.205907        -0.058083
 H         5.261265         0.882646         1.021888
 H         3.204949         1.002959        -1.981858
 H         1.498170        -0.380884        -2.115793
 H         2.239043        -1.856240        -1.293134
