19
Iteration:  2785
 C         0.005049        -0.517441         0.248069
 C         1.479167        -0.166148         0.118293
 C         2.665471        -0.292704         1.065160
 C         3.121747         0.860421         0.168827
 C         4.572196         1.238634         0.129607
 O         4.786937         0.074807        -0.766559
 C         3.359369         0.295486        -1.229131
 C         2.181053        -0.636642        -1.344512
 O         1.653428         1.296119         0.130700
 H        -0.404012        -0.138157         1.261482
 H        -0.468890         0.093799        -0.587889
 H         0.064801        -1.536285        -0.104638
 H         2.539117         0.112839         2.097748
 H         2.932818        -1.284366         1.067640
 H         4.818758         2.206600        -0.384678
 H         5.074224         1.021314         1.008193
 H         3.326972         0.944135        -2.119941
 H         1.517454        -0.486064        -2.223779
 H         2.271416        -1.768429        -1.535669
