19
Iteration:  4421charge 0 multiplicity 1
 C        -0.073517        -0.523542         0.334580
 C         1.489010        -0.213598         0.038467
 C         2.645300        -0.328456         1.006848
 C         3.120802         0.900059         0.206663
 C         4.593666         1.256144         0.240145
 O         4.800303         0.059079        -0.840542
 C         3.347099         0.271018        -1.195305
 C         2.224145        -0.604569        -1.339510
 O         1.654311         1.321399         0.022102
 H        -0.301455         0.236426         1.194117
 H        -0.770276        -0.195732        -0.458546
 H        -0.233310        -1.540944         0.705406
 H         2.458666         0.209256         1.999933
 H         3.147131        -1.284538         0.938393
 H         4.839661         2.269563        -0.019367
 H         5.211177         0.654090         0.996464
 H         3.348239         1.056290        -1.941550
 H         1.590985        -0.429130        -2.134837
 H         2.603072        -1.668969        -1.518886
