19
Iteration:  1905charge 0 multiplicity 1
 C        -0.021090        -0.558704         0.300898
 C         1.459940        -0.193953        -0.046198
 C         2.560645        -0.346070         1.082492
 C         3.122362         0.759902         0.206922
 C         4.610864         1.226739         0.211386
 O         4.859768         0.177110        -0.870051
 C         3.363527         0.300033        -1.200915
 C         2.112204        -0.612172        -1.382954
 O         1.722873         1.333277         0.099366
 H        -0.100956        -0.269702         1.363505
 H        -0.676785         0.174664        -0.309931
 H        -0.094289        -1.608624         0.170172
 H         2.234384         0.089890         2.034548
 H         3.182490        -1.190899         1.319990
 H         4.769963         2.192611        -0.191330
 H         5.054498         1.079679         1.296836
 H         3.329273         1.091004        -1.859455
 H         1.436334        -0.514129        -2.191260
 H         2.371818        -1.640111        -1.197000
