19
Iteration:  2690
 C        -0.077501        -0.547798         0.253114
 C         1.452517        -0.176929         0.048289
 C         2.699626        -0.350550         0.976716
 C         3.129783         0.884707         0.154119
 C         4.585789         1.239914         0.224228
 O         4.731486         0.102657        -0.802432
 C         3.371574         0.306237        -1.208879
 C         2.129701        -0.679378        -1.251554
 O         1.751686         1.366813         0.106988
 H        -0.448674         0.103952         1.075986
 H        -0.637189        -0.245922        -0.622164
 H        -0.083512        -1.584086         0.416198
 H         2.668553        -0.127647         2.072178
 H         3.191676        -1.390717         0.759842
 H         4.660177         2.277883        -0.225426
 H         5.294259         1.028235         1.041061
 H         3.545998         0.993943        -2.044601
 H         1.634481        -0.466948        -2.197413
 H         2.270392        -1.731526        -1.324679
