19
Iteration:  2790charge 0 multiplicity 1
 C        -0.000426        -0.471028         0.243933
 C         1.497108        -0.216782         0.130307
 C         2.644591        -0.298788         1.085877
 C         3.102046         0.882168         0.150895
 C         4.562826         1.240873         0.121366
 O         4.763321         0.074880        -0.746190
 C         3.333569         0.300991        -1.261018
 C         2.199033        -0.637774        -1.363909
 O         1.668742         1.274239         0.124174
 H        -0.285289        -0.243273         1.246658
 H        -0.434625         0.065982        -0.564230
 H        -0.094322        -1.552328        -0.057562
 H         2.412876         0.174745         2.033687
 H         3.223366        -1.350295         1.065648
 H         4.984833         2.055867        -0.457236
 H         5.215000         1.080677         1.079284
 H         3.481661         1.117548        -1.999027
 H         1.387901        -0.389176        -2.075156
 H         2.452902        -1.663325        -1.431087
