19
Iteration:   620
 C        -0.108139        -0.583284         0.179438
 C         1.400542        -0.083339         0.061736
 C         2.622305        -0.508379         1.165304
 C         3.206511         0.688170         0.326910
 C         4.569207         1.266658         0.090694
 O         4.868951         0.231670        -0.921114
 C         3.351014         0.291442        -1.145699
 C         2.100631        -0.525118        -1.339751
 O         1.794769         1.332754         0.123893
 H        -0.585816        -0.211708         1.089741
 H        -0.691515        -0.204384        -0.714165
 H        -0.000020        -1.762287         0.161091
 H         2.401915        -0.262202         2.212168
 H         3.171106        -1.447539         0.983678
 H         4.275051         2.284792        -0.213534
 H         5.558418         1.288943         0.727273
 H         3.346316         1.250247        -1.901558
 H         1.348392        -0.343607        -2.155791
 H         2.186895        -1.692610        -1.321608
