19
Iteration:   161
 C        -0.030837        -0.529854         0.238593
 C         1.448685        -0.187186         0.069867
 C         2.747458        -0.298581         0.991371
 C         3.116794         0.830909         0.174251
 C         4.611592         1.186392         0.204599
 O         4.691223         0.095065        -0.808053
 C         3.341763         0.426697        -1.243798
 C         2.156684        -0.600306        -1.321969
 O         1.715869         1.248752         0.167198
 H        -0.798415        -0.076943         1.132380
 H        -0.460373        -0.374581        -0.730285
 H        -0.142199        -1.618318         0.354516
 H         2.563825         0.037026         2.044353
 H         3.396995        -1.251518         0.955579
 H         4.854807         2.048993        -0.357980
 H         5.322321         1.086237         1.140850
 H         3.287124         1.338441        -2.053038
 H         1.466392        -0.534716        -2.163368
 H         2.613999        -1.612579        -1.248082
