19
Iteration:     5
 C         0.041317        -0.537323         0.313079
 C         1.472278        -0.134924         0.050338
 C         2.610404        -0.375461         0.978299
 C         3.110697         0.838171         0.218083
 C         4.615992         1.228915         0.174336
 O         4.746587         0.160335        -0.846162
 C         3.342675         0.299083        -1.211420
 C         2.134049        -0.660447        -1.325167
 O         1.748541         1.311450         0.159128
 H        -0.350795        -0.258052         1.276618
 H        -0.684525        -0.083515        -0.515262
 H        -0.055356        -1.667465         0.203523
 H         2.171040        -0.049291         1.937986
 H         3.194442        -1.273718         0.874313
 H         4.764745         2.221340        -0.328856
 H         5.262607         1.085963         1.020474
 H         3.232066         1.198585        -1.984673
 H         1.617318        -0.340332        -2.298118
 H         2.326769        -1.796366        -1.386567
