19
Iteration:  3940
 C        -0.015881        -0.461550         0.290987
 C         1.436731        -0.210304         0.057784
 C         2.619020        -0.319632         1.047156
 C         3.108465         0.848103         0.166943
 C         4.658381         1.206946         0.253928
 O         4.778818         0.267023        -0.905450
 C         3.345804         0.283411        -1.206239
 C         2.172619        -0.768044        -1.270662
 O         1.706753         1.265982         0.060231
 H        -0.515775         0.186306         1.044154
 H        -0.534550        -0.074101        -0.657361
 H        -0.225825        -1.566405         0.378677
 H         2.245180        -0.131818         2.029143
 H         3.364956        -1.219292         0.885921
 H         5.026016         2.211692         0.160076
 H         5.270275         0.751504         1.104581
 H         3.179721         1.171057        -1.892247
 H         1.607129        -0.455161        -2.240148
 H         2.239976        -1.866024        -1.198702
