19
Iteration:  3994
 C         0.044791        -0.585837         0.297940
 C         1.429994        -0.171764        -0.110269
 C         2.587445        -0.322380         1.082028
 C         3.119371         0.821907         0.201418
 C         4.605934         1.320320         0.130481
 O         4.818207         0.087921        -0.778749
 C         3.294911         0.286659        -1.118534
 C         2.128696        -0.657180        -1.380181
 O         1.745500         1.358881         0.133365
 H        -0.206209        -0.311719         1.326685
 H        -0.625387        -0.162904        -0.499098
 H        -0.011579        -1.691127         0.298954
 H         2.392482         0.064329         2.063160
 H         3.141759        -1.349897         1.347067
 H         4.684976         2.271530        -0.361367
 H         5.333784         1.244373         0.945111
 H         3.284396         1.050574        -1.962895
 H         1.623943        -0.367868        -2.367740
 H         2.157045        -1.715271        -1.523566
