19
Iteration:   939charge 0 multiplicity 1
 C         0.077094        -0.502660         0.265651
 C         1.483677        -0.121122        -0.028101
 C         2.652941        -0.379472         0.965367
 C         3.109588         0.830995         0.251376
 C         4.588224         1.165735         0.252584
 O         4.787601         0.228324        -0.871778
 C         3.346773         0.292197        -1.142333
 C         2.127449        -0.687511        -1.358501
 O         1.638537         1.299958         0.119555
 H        -0.132144         0.026559         1.262464
 H        -0.620079         0.045331        -0.369683
 H        -0.179383        -1.657591         0.310119
 H         2.204204        -0.026622         1.913772
 H         3.268968        -1.258736         1.177267
 H         4.798764         2.252463         0.023326
 H         5.189368         0.661407         1.025349
 H         3.134985         1.029955        -1.987825
 H         1.736254        -0.492988        -2.405344
 H         2.477365        -1.726209        -1.216478
