19
Iteration:  1286charge 0 multiplicity 1
 C         0.072582        -0.556119         0.292289
 C         1.409004        -0.109433        -0.056308
 C         2.522678        -0.390637         1.014160
 C         3.112387         0.838464         0.239885
 C         4.590581         1.209828         0.183997
 O         4.847690         0.202037        -0.900068
 C         3.341692         0.270297        -1.140342
 C         2.141157        -0.667849        -1.316664
 O         1.752881         1.355872         0.126941
 H        -0.130905        -0.212814         1.254249
 H        -0.768458        -0.312682        -0.418617
 H         0.012819        -1.752140         0.531178
 H         2.340670        -0.174218         2.070840
 H         3.110427        -1.344667         0.923423
 H         4.840641         2.307678         0.095203
 H         5.005390         0.842916         1.102036
 H         3.206290         1.090929        -1.934900
 H         1.619449        -0.310617        -2.200865
 H         2.204711        -1.708077        -1.488531
