19
Iteration:   135charge 0 multiplicity 1
 C         0.094956        -0.578687         0.271766
 C         1.469721        -0.204803        -0.045487
 C         2.527353        -0.430387         1.000934
 C         3.136043         0.754299         0.216433
 C         4.595750         1.291900         0.154860
 O         4.855075         0.174448        -0.874756
 C         3.368207         0.232283        -1.126630
 C         2.078086        -0.576385        -1.298690
 O         1.708799         1.409579         0.191038
 H        -0.189780         0.093163         0.958763
 H        -0.634909        -0.451260        -0.644833
 H        -0.109047        -1.557352         0.709882
 H         2.287476        -0.172017         2.011292
 H         2.978493        -1.381487         0.966515
 H         4.694825         2.232724        -0.490363
 H         5.206823         1.368855         1.004153
 H         3.244429         0.987123        -1.875333
 H         1.487424        -0.093196        -2.175818
 H         2.104091        -1.747770        -1.427161
