19
Iteration:  1233
 C         0.058380        -0.569304         0.273645
 C         1.465710        -0.151888        -0.002008
 C         2.655768        -0.357522         0.936601
 C         3.101163         0.921580         0.170280
 C         4.641776         1.248244         0.188765
 O         4.685042         0.085988        -0.756952
 C         3.408643         0.290275        -1.192525
 C         2.121628        -0.628360        -1.369208
 O         1.661560         1.314427         0.209656
 H        -0.232136        -0.372980         1.283680
 H        -0.462895         0.084884        -0.401891
 H        -0.044595        -1.690751        -0.076726
 H         2.431202         0.005106         1.969696
 H         3.384924        -1.269401         0.979294
 H         4.890850         2.121604        -0.312227
 H         5.245022         1.249430         1.175022
 H         3.400018         0.958797        -2.015042
 H         1.620849        -0.325259        -2.345286
 H         2.105361        -1.723569        -1.387345
