19
Iteration:  3266charge 0 multiplicity 1
 C         0.033256        -0.514034         0.182204
 C         1.511691        -0.206064         0.106805
 C         2.627652        -0.291570         1.038351
 C         3.126989         0.823989         0.165343
 C         4.563665         1.210843         0.204445
 O         4.820874         0.125286        -0.840779
 C         3.368104         0.259279        -1.199690
 C         2.025444        -0.665803        -1.275410
 O         1.715407         1.339293         0.080165
 H        -0.546554         0.136931         0.960885
 H        -0.421281        -0.026133        -0.754440
 H        -0.098003        -1.548436         0.599586
 H         2.295608        -0.102272         2.111186
 H         3.431689        -1.210868         1.024257
 H         4.897951         2.164768        -0.354828
 H         5.158905         1.261463         1.208796
 H         3.252995         1.210901        -1.766582
 H         1.271148        -0.595318        -2.168193
 H         2.424028        -1.646473        -1.185227
