19
Iteration:  3398
 C         0.007339        -0.472709         0.210692
 C         1.443980        -0.194123        -0.028657
 C         2.593144        -0.334385         1.056303
 C         3.131027         0.817089         0.223814
 C         4.594059         1.295543         0.133877
 O         4.719238         0.092915        -0.779723
 C         3.298980         0.383105        -1.226375
 C         2.165878        -0.777363        -1.284210
 O         1.820913         1.332237         0.150709
 H        -0.373461         0.092906         1.061350
 H        -0.633748        -0.335431        -0.714776
 H        -0.160062        -1.580257         0.461012
 H         2.301977         0.119666         1.955023
 H         3.135741        -1.330612         1.021787
 H         4.678498         2.337185        -0.223761
 H         5.352623         1.070051         0.899079
 H         3.298770         1.177348        -1.930938
 H         1.636248        -0.761848        -2.232116
 H         2.635331        -1.716377        -1.082361
