19
Iteration:  4292charge 0 multiplicity 1
 C        -0.036021        -0.493096         0.279388
 C         1.397285        -0.088799         0.041791
 C         2.498899        -0.393202         0.994454
 C         3.168128         0.755587         0.198577
 C         4.580871         1.281911         0.169810
 O         4.846311         0.199272        -0.881055
 C         3.413364         0.289077        -1.220793
 C         2.125247        -0.763804        -1.241297
 O         1.758953         1.382315         0.118628
 H        -0.432259        -0.123013         1.220844
 H        -0.640416        -0.399364        -0.599311
 H         0.159957        -1.569059         0.407918
 H         2.246867        -0.120613         2.077331
 H         2.859623        -1.431337         1.030168
 H         4.806626         2.305968        -0.178784
 H         5.235683         1.145255         1.121567
 H         3.355262         0.869602        -2.139086
 H         1.752133        -0.762186        -2.280772
 H         2.527200        -1.782845        -0.954256
