19
Iteration:   501
 C         0.011849        -0.590683         0.248685
 C         1.416985        -0.168693         0.072732
 C         2.601164        -0.519341         0.931740
 C         3.112751         0.784973         0.177992
 C         4.606747         1.314828         0.093031
 O         4.790602         0.114895        -0.767572
 C         3.353588         0.342067        -1.173971
 C         2.128770        -0.505386        -1.300520
 O         1.753808         1.372997         0.187822
 H        -0.410355        -0.072679         1.063734
 H        -0.634543        -0.402158        -0.615092
 H        -0.003337        -1.725481         0.476761
 H         2.645718        -0.216205         1.995427
 H         3.054416        -1.501061         0.732842
 H         4.751580         2.239538        -0.437900
 H         5.304918         1.197440         0.934428
 H         3.363000         1.213203        -1.690304
 H         1.475792        -0.285772        -2.219677
 H         2.287533        -1.662391        -1.381829
