19
Iteration:  2772
 C         0.028745        -0.580149         0.225013
 C         1.405421        -0.061540         0.041743
 C         2.620763        -0.346304         1.003711
 C         3.135869         0.818537         0.153679
 C         4.612732         1.240476         0.177158
 O         4.819030         0.122190        -0.830001
 C         3.376155         0.219380        -1.174740
 C         2.090753        -0.680855        -1.262242
 O         1.703036         1.386941         0.127346
 H        -0.453888        -0.414689         1.190869
 H        -0.650150        -0.166276        -0.563043
 H        -0.174296        -1.678196         0.212103
 H         2.396389        -0.006268         2.032743
 H         3.306974        -1.171171         0.936142
 H         4.737594         2.270666        -0.251036
 H         5.251552         1.199269         1.111895
 H         3.414963         1.062522        -1.974026
 H         1.662968        -0.287932        -2.184737
 H         2.237519        -1.786026        -1.067593
