19
Iteration:  3846
 C         0.044001        -0.566551         0.405262
 C         1.446957        -0.193258        -0.001398
 C         2.637670        -0.318311         1.055457
 C         3.072049         0.837661         0.118004
 C         4.623730         1.192767         0.218205
 O         4.729533         0.102403        -0.733142
 C         3.343552         0.364251        -1.294621
 C         2.210578        -0.591215        -1.359381
 O         1.690636         1.297658         0.005034
 H        -0.290482        -0.207070         1.390574
 H        -0.592966         0.046926        -0.162130
 H        -0.087447        -1.578434         0.142866
 H         2.377153         0.208529         2.023304
 H         3.289762        -1.143838         1.069790
 H         5.173729         2.119177        -0.043521
 H         5.073125         0.825206         1.153302
 H         3.235408         1.151834        -2.051994
 H         1.593136        -0.300570        -2.137964
 H         2.287537        -1.748425        -1.265271
