19
Iteration:  3968
 C        -0.000545        -0.496192         0.307440
 C         1.410982        -0.161177         0.023468
 C         2.603775        -0.357341         1.015667
 C         3.069673         0.814500         0.105314
 C         4.574614         1.162484         0.216596
 O         4.829162         0.169931        -0.830611
 C         3.306717         0.392216        -1.276114
 C         2.267119        -0.710631        -1.233060
 O         1.693511         1.335644         0.099458
 H        -0.338707        -0.045515         1.240462
 H        -0.580311        -0.107510        -0.493262
 H        -0.096958        -1.574991         0.434721
 H         2.488346        -0.185631         2.168338
 H         3.239248        -1.207636         0.925273
 H         4.793611         2.280071         0.025280
 H         5.210661         0.860575         1.026534
 H         3.247726         1.174572        -2.055293
 H         1.693546        -0.757099        -2.175527
 H         2.516860        -1.767380        -1.141148
