19
Iteration:   700charge 0 multiplicity 1
 C         0.059078        -0.633907         0.392251
 C         1.401485        -0.099586        -0.004194
 C         2.551064        -0.364548         0.994262
 C         3.157371         0.858790         0.202706
 C         4.726075         1.145057         0.263903
 O         4.786354         0.183183        -0.837709
 C         3.355831         0.351075        -1.197603
 C         2.084151        -0.611564        -1.384307
 O         1.666514         1.353009         0.038227
 H        -0.186832        -0.535938         1.388488
 H        -0.779321        -0.316587        -0.259774
 H         0.208492        -1.740111         0.236276
 H         2.282008        -0.159708         2.047677
 H         3.229634        -1.213545         0.946263
 H         5.124387         2.037902        -0.204144
 H         5.256688         0.927892         1.122117
 H         3.384085         1.121306        -2.009168
 H         1.331552        -0.241547        -2.135971
 H         2.207385        -1.713555        -1.375211
