19
Iteration:  3072charge 0 multiplicity 1
 C         0.004777        -0.485816         0.257660
 C         1.415046        -0.243126        -0.022332
 C         2.568254        -0.413711         1.023295
 C         3.120404         0.863537         0.232883
 C         4.573122         1.208581         0.185610
 O         4.749403         0.138169        -0.850119
 C         3.311559         0.332415        -1.186891
 C         2.197235        -0.702957        -1.234733
 O         1.811737         1.411422         0.084246
 H        -0.340399         0.169203         1.041841
 H        -0.627913        -0.471195        -0.667610
 H        -0.124636        -1.532414         0.692638
 H         2.396228        -0.131675         2.027547
 H         3.239998        -1.261366         0.826141
 H         4.842086         2.235643        -0.298944
 H         5.212557         1.086229         1.108804
 H         3.219806         1.260430        -1.893440
 H         1.780031        -0.604538        -2.324847
 H         2.465417        -1.767418        -1.151728
