19
Iteration:  2778charge 0 multiplicity 1
 C         0.045496        -0.555460         0.233070
 C         1.423451        -0.083800         0.073127
 C         2.654966        -0.296770         1.031807
 C         3.128945         0.829044         0.158216
 C         4.604188         1.242564         0.142760
 O         4.805353         0.089041        -0.806605
 C         3.383288         0.268723        -1.192599
 C         2.121264        -0.679026        -1.300409
 O         1.667157         1.343914         0.133633
 H        -0.567663        -0.328986         1.144068
 H        -0.549496        -0.010383        -0.486359
 H        -0.108572        -1.636006         0.102486
 H         2.544844        -0.009317         2.072928
 H         3.078799        -1.393953         1.065406
 H         4.637203         2.277582        -0.195447
 H         5.128772         1.108192         1.127564
 H         3.308399         0.890548        -2.058782
 H         1.727962        -0.314627        -2.274655
 H         2.229737        -1.731007        -1.306419
