19
Iteration:   882charge 0 multiplicity 1
 C         0.086332        -0.587683         0.226061
 C         1.456161        -0.110983         0.058452
 C         2.659988        -0.304904         0.957092
 C         3.099998         0.933542         0.179763
 C         4.586975         1.223708         0.162821
 O         4.802409         0.051682        -0.767389
 C         3.367242         0.281551        -1.220183
 C         2.132154        -0.626035        -1.367491
 O         1.597825         1.329173         0.248468
 H        -0.201613        -0.379247         1.206768
 H        -0.623282        -0.084917        -0.519325
 H         0.022589        -1.753115         0.187622
 H         2.447354        -0.214711         2.062789
 H         3.287160        -1.170913         0.657181
 H         4.836372         2.152270        -0.328608
 H         5.277726         1.157299         1.105379
 H         3.378015         1.022976        -2.050302
 H         1.550572        -0.311900        -2.284204
 H         2.277604        -1.738705        -1.510865
