19
Iteration:   991
 C         0.074165        -0.484098         0.136315
 C         1.458536        -0.128174        -0.019329
 C         2.584153        -0.428620         1.030222
 C         3.155005         0.780243         0.283918
 C         4.601478         1.288195         0.122328
 O         4.786062         0.169402        -0.852552
 C         3.315761         0.303113        -1.141072
 C         2.073097        -0.687556        -1.307236
 O         1.739919         1.310615         0.233797
 H        -0.362345        -0.015937         0.919150
 H        -0.604172        -0.354961        -0.725349
 H         0.151859        -1.602794         0.274902
 H         2.297594        -0.110884         2.105269
 H         3.250936        -1.339057         0.890268
 H         4.750126         2.182451        -0.365409
 H         5.343382         1.171298         1.063195
 H         3.075205         1.177837        -1.753964
 H         1.497942        -0.245216        -2.196515
 H         2.365187        -1.778567        -1.394870
