19
Iteration:  3156
 C         0.038770        -0.592221         0.265525
 C         1.415927        -0.088002         0.006127
 C         2.525653        -0.344193         0.965494
 C         3.161593         0.878506         0.177031
 C         4.622742         1.289059         0.080810
 O         4.773754         0.043847        -0.701676
 C         3.373173         0.334217        -1.205922
 C         2.094852        -0.662784        -1.306016
 O         1.776477         1.338191         0.152299
 H        -0.147254        -0.399274         1.395803
 H        -0.769049        -0.110314        -0.344340
 H        -0.022464        -1.657046        -0.021093
 H         2.217727         0.047331         2.010840
 H         3.124365        -1.271686         1.229287
 H         4.705114         2.218043        -0.533697
 H         5.255842         1.114016         0.996365
 H         3.336253         0.971584        -2.082581
 H         1.762618        -0.613254        -2.383881
 H         2.268974        -1.703327        -1.096363
