19
Iteration:  4095
 C        -0.053658        -0.516151         0.271567
 C         1.375355        -0.230296         0.052584
 C         2.517847        -0.394068         1.026184
 C         3.153412         0.771197         0.231504
 C         4.696882         1.265990         0.156044
 O         4.898370         0.256668        -0.890253
 C         3.363155         0.240028        -1.144488
 C         2.109029        -0.667003        -1.286333
 O         1.725539         1.353113         0.038474
 H        -0.263196        -0.078727         1.316098
 H        -0.676401        -0.166745        -0.540988
 H        -0.075287        -1.598753         0.425826
 H         2.128406         0.069199         1.958790
 H         3.174988        -1.242283         1.139967
 H         4.771355         2.225272        -0.194027
 H         5.305305         1.045902         1.084382
 H         3.060562         1.092103        -1.732678
 H         1.592263        -0.476036        -2.165587
 H         2.386922        -1.779220        -1.182280
