19
Iteration:    88
 C         0.044333        -0.441550         0.331807
 C         1.486545        -0.246819         0.024148
 C         2.633407        -0.380654         0.921459
 C         3.081680         0.857710         0.177163
 C         4.540835         1.179248         0.275635
 O         4.769017         0.179502        -0.884763
 C         3.369754         0.401406        -1.236382
 C         2.185847        -0.712899        -1.304558
 O         1.682306         1.291763         0.129217
 H        -0.223631         0.050139         1.276792
 H        -0.534369         0.027130        -0.399684
 H        -0.285206        -1.485307         0.430468
 H         2.412978        -0.123563         1.966019
 H         3.324846        -1.240267         0.955772
 H         4.731633         2.250359         0.007328
 H         5.133937         0.853258         1.161791
 H         3.312000         1.087024        -2.014967
 H         1.595551        -0.646392        -2.205434
 H         2.527284        -1.708253        -1.192530
