19
Iteration:  3025charge 0 multiplicity 1
 C        -0.046152        -0.580195         0.218560
 C         1.425821        -0.191675         0.050271
 C         2.634369        -0.334909         1.059146
 C         3.128759         0.860469         0.154559
 C         4.620147         1.236462         0.161542
 O         4.850135         0.110668        -0.843638
 C         3.393784         0.245860        -1.175250
 C         2.138409        -0.612793        -1.253059
 O         1.705675         1.375831         0.109336
 H        -0.487029        -0.314502         1.182605
 H        -0.601400        -0.060866        -0.546914
 H        -0.358560        -1.581611         0.133686
 H         2.382257         0.085424         2.077464
 H         3.136832        -1.275248         0.925273
 H         4.740475         2.308315        -0.196295
 H         5.104845         1.121385         1.051478
 H         3.437384         0.995082        -2.023762
 H         1.393293        -0.335197        -2.007151
 H         2.151598        -1.724566        -1.263776
