19
Iteration:  4004
 C         0.052221        -0.606004         0.240275
 C         1.441782        -0.174676         0.041429
 C         2.578172        -0.325509         1.063240
 C         3.119158         0.790455         0.234511
 C         4.602227         1.285378         0.074662
 O         4.844668         0.092768        -0.723666
 C         3.372473         0.291912        -1.196200
 C         2.069603        -0.600362        -1.330327
 O         1.730868         1.349513         0.079906
 H        -0.141625        -0.263649         1.243832
 H        -0.815660        -0.239961        -0.344956
 H         0.033340        -1.707176         0.187022
 H         2.022785        -0.075560         1.950116
 H         3.331739        -1.226269         0.930717
 H         4.583741         2.188959        -0.542602
 H         5.305736         1.310902         0.902551
 H         3.284452         1.220809        -1.864143
 H         1.485497        -0.100113        -2.192932
 H         2.205585        -1.640350        -1.323449
