19
Iteration:  4306
 C        -0.048423        -0.541171         0.325636
 C         1.393557        -0.137536         0.039941
 C         2.546044        -0.375871         1.073109
 C         3.082573         0.833328         0.143064
 C         4.591016         1.198655         0.212991
 O         4.844545         0.216132        -0.858006
 C         3.352150         0.286230        -1.219730
 C         2.262673        -0.767566        -1.341701
 O         1.819740         1.385741         0.057148
 H        -0.452974        -0.048398         1.207867
 H        -0.821067        -0.065447        -0.384795
 H        -0.291401        -1.668126         0.320305
 H         2.387202         0.175673         1.981694
 H         3.035609        -1.382439         1.122600
 H         4.697705         2.231107        -0.185419
 H         5.132885         0.949179         1.081808
 H         3.189865         1.275881        -1.804712
 H         1.343223        -0.770679        -2.078668
 H         2.333630        -1.794780        -1.080635
