19
Iteration:  4891charge 0 multiplicity 1
 C         0.021004        -0.501838         0.221378
 C         1.436053        -0.200184         0.080502
 C         2.651523        -0.363979         1.063845
 C         3.112970         0.852078         0.089312
 C         4.607196         1.236771         0.158708
 O         4.830668         0.136057        -0.756554
 C         3.366953         0.272773        -1.207856
 C         2.078372        -0.651729        -1.273352
 O         1.684046         1.334580         0.091785
 H        -0.353625        -0.518348         1.351543
 H        -0.527363         0.289466        -0.417790
 H        -0.069692        -1.571237        -0.266648
 H         2.595788         0.097989         2.052229
 H         3.180454        -1.418606         1.023987
 H         4.915085         2.176293        -0.315482
 H         5.070647         1.028098         1.150023
 H         3.334083         1.146623        -1.912335
 H         1.508227        -0.265291        -2.254332
 H         2.149446        -1.741332        -1.190498
