19
Iteration:  4198charge 0 multiplicity 1
 C         0.018412        -0.671044         0.426748
 C         1.383147        -0.126362        -0.065695
 C         2.554436        -0.320779         1.014871
 C         3.099432         0.828267         0.115587
 C         4.573622         1.164514         0.187592
 O         4.799043         0.164065        -0.772111
 C         3.439773         0.318664        -1.193120
 C         2.092661        -0.641364        -1.254389
 O         1.817620         1.422394         0.009855
 H        -0.279246        -0.411082         1.445286
 H        -0.781801        -0.254110        -0.297433
 H         0.043930        -1.772009         0.074018
 H         2.330374         0.069365         1.987760
 H         2.893152        -1.372724         1.112664
 H         4.851414         2.215228        -0.133821
 H         5.114486         1.003797         1.073877
 H         3.277262         1.035834        -2.061353
 H         1.571800        -0.430606        -2.293897
 H         2.505009        -1.602305        -1.319338
