19
Iteration:  2919charge 0 multiplicity 1
 C        -0.027233        -0.553848         0.200744
 C         1.393810        -0.158641         0.028099
 C         2.667684        -0.352230         1.045118
 C         3.068001         0.861184         0.152077
 C         4.606361         1.229149         0.152906
 O         4.740314         0.135040        -0.798890
 C         3.344239         0.255145        -1.232329
 C         2.201900        -0.714863        -1.304796
 O         1.774514         1.422207         0.197673
 H        -0.489414         0.100693         0.996684
 H        -0.657477        -0.254356        -0.648044
 H        -0.049536        -1.648404         0.480407
 H         2.359349        -0.191601         2.020640
 H         3.280992        -1.196444         1.187917
 H         4.885442         2.182932        -0.328264
 H         5.178829         1.109530         1.049605
 H         3.477384         1.001046        -1.971836
 H         1.627131        -0.522324        -2.270040
 H         2.418618        -1.802815        -1.224171
