19
Iteration:  2456charge 0 multiplicity 1
 C         0.069996        -0.580986         0.290521
 C         1.421939        -0.187215         0.108183
 C         2.540501        -0.340598         1.046234
 C         3.194531         0.784852         0.200219
 C         4.607061         1.228045         0.128638
 O         4.811488         0.121900        -0.745201
 C         3.380141         0.332792        -1.270406
 C         2.066131        -0.588964        -1.327274
 O         1.727465         1.348492         0.076511
 H        -0.249434        -0.462177         1.234746
 H        -0.572525         0.076919        -0.270715
 H        -0.239900        -1.519909        -0.132350
 H         2.277459        -0.078886         2.086348
 H         3.090490        -1.331838         1.101655
 H         4.678647         2.164456        -0.481028
 H         5.341268         1.195945         0.951145
 H         3.270150         1.097085        -2.056394
 H         1.463027        -0.335647        -2.193770
 H         2.284885        -1.626460        -1.475998
