19
Iteration:  3019charge 0 multiplicity 1
 C        -0.037371        -0.550486         0.279658
 C         1.430717        -0.208152         0.044258
 C         2.633909        -0.325225         1.020096
 C         3.158805         0.869552         0.137221
 C         4.648743         1.256552         0.206158
 O         4.784749         0.123257        -0.806236
 C         3.338972         0.265900        -1.197687
 C         2.116674        -0.657874        -1.262039
 O         1.736439         1.359497         0.088536
 H        -0.551244        -0.332126         1.221399
 H        -0.540985        -0.087924        -0.634252
 H        -0.256341        -1.619040        -0.179600
 H         2.537576         0.025613         2.025979
 H         3.275739        -1.252385         0.983152
 H         4.825863         2.267554        -0.237213
 H         5.167712         1.078655         1.237407
 H         3.344524         1.013063        -2.009450
 H         1.627725        -0.389334        -2.264894
 H         2.074548        -1.748734        -1.215196
