19
Iteration:  1894
 C         0.021904        -0.540609         0.286858
 C         1.389249        -0.180175        -0.037037
 C         2.505477        -0.398845         1.057838
 C         3.148819         0.809074         0.291718
 C         4.582232         1.269141         0.190380
 O         4.923079         0.198856        -0.904172
 C         3.326827         0.306282        -1.120850
 C         2.088145        -0.677715        -1.342064
 O         1.806753         1.336592         0.051967
 H        -0.187425        -0.216390         1.328487
 H        -0.907628        -0.228111        -0.309515
 H        -0.230488        -1.570822         0.290656
 H         2.149359        -0.032123         2.031707
 H         3.009070        -1.354294         1.064754
 H         4.781648         2.202635        -0.232826
 H         5.259142         1.119131         1.181066
 H         3.240164         1.018008        -1.841061
 H         1.522076        -0.335662        -2.161907
 H         2.271773        -1.731388        -1.470816
