19
Iteration:  4277charge 0 multiplicity 1
 C         0.013947        -0.529960         0.214550
 C         1.444769        -0.083642        -0.033182
 C         2.592650        -0.349206         1.023511
 C         3.090805         0.810090         0.206526
 C         4.615772         1.236654         0.118417
 O         4.848291         0.191772        -0.824407
 C         3.322630         0.199452        -1.141657
 C         2.170878        -0.680359        -1.272714
 O         1.736198         1.321015         0.144318
 H        -0.377427         0.110719         1.070254
 H        -0.597081        -0.321555        -0.662959
 H        -0.180014        -1.521142         0.591668
 H         2.298705        -0.066464         2.021469
 H         3.240399        -1.240380         0.989741
 H         4.606978         2.209787        -0.406835
 H         5.281119         1.149416         1.008956
 H         3.092473         1.027141        -1.831498
 H         1.466452        -0.528099        -2.051123
 H         2.133428        -1.777883        -1.062230
