19
Iteration:  1022
 C        -0.087818        -0.594390         0.329910
 C         1.367291        -0.161559         0.017118
 C         2.555725        -0.371833         1.023877
 C         3.124432         0.753396         0.210899
 C         4.557620         1.202286         0.168434
 O         4.856941         0.170373        -0.853576
 C         3.420249         0.383630        -1.202197
 C         2.178824        -0.567484        -1.342853
 O         1.769825         1.299737         0.122044
 H        -0.383052        -0.314147         1.269854
 H        -0.836317        -0.258503        -0.439607
 H        -0.128835        -1.675287         0.250912
 H         2.331189        -0.029254         2.070160
 H         3.211132        -1.261259         1.015082
 H         4.769715         2.199151        -0.323656
 H         5.337928         1.123531         1.019380
 H         3.449547         1.313365        -1.691524
 H         1.621181        -0.288399        -2.224724
 H         2.531656        -1.579005        -1.531160
