19
Iteration:  4171
 C         0.040766        -0.569112         0.323014
 C         1.454017        -0.146347        -0.010736
 C         2.633609        -0.282319         1.090145
 C         3.130078         0.845169         0.177487
 C         4.633599         1.230918         0.154521
 O         4.810496         0.104696        -0.811091
 C         3.377118         0.331225        -1.170262
 C         2.122284        -0.689598        -1.373056
 O         1.617685         1.304332         0.078314
 H        -0.240149        -0.109050         1.284261
 H        -0.552798        -0.009812        -0.364540
 H        -0.161264        -1.588119         0.142386
 H         2.384467         0.167257         2.111301
 H         2.968417        -1.319340         1.154047
 H         4.896879         2.203933        -0.184184
 H         5.130299         0.985347         1.152770
 H         3.244444         1.062083        -1.939076
 H         1.702409        -0.313463        -2.222008
 H         2.404959        -1.783397        -1.532752
