19
Iteration:  4620charge 0 multiplicity 1
 C         0.025364        -0.464702         0.215418
 C         1.459754        -0.116426         0.002109
 C         2.648867        -0.323040         0.944314
 C         3.089025         0.899678         0.170942
 C         4.576028         1.235951         0.203051
 O         4.724156         0.074753        -0.831049
 C         3.327101         0.277329        -1.200131
 C         2.191007        -0.672785        -1.290928
 O         1.738874         1.305969         0.243221
 H        -0.504725         0.212125         0.861654
 H        -0.475892        -0.624622        -0.819183
 H        -0.083763        -1.587086         0.650747
 H         2.574216        -0.112685         1.960487
 H         3.209833        -1.317157         0.928362
 H         4.995966         1.985715        -0.365205
 H         5.169165         1.317096         1.173299
 H         3.310038         0.872637        -2.143591
 H         1.645570        -0.757520        -2.284988
 H         2.269757        -1.626832        -0.916442
