19
Iteration:  1617charge 0 multiplicity 1
 C        -0.047324        -0.604647         0.289231
 C         1.441622        -0.218612        -0.003356
 C         2.638429        -0.375492         0.920240
 C         3.159489         0.871463         0.179522
 C         4.629472         1.231673         0.186514
 O         4.785772         0.117277        -0.751094
 C         3.318978         0.297119        -1.192614
 C         2.133919        -0.606037        -1.349711
 O         1.713349         1.420564         0.162401
 H        -0.350080        -0.299739         1.389088
 H        -0.633828        -0.062611        -0.485282
 H        -0.150714        -1.784117         0.192785
 H         2.517540        -0.083088         1.973013
 H         3.179098        -1.332577         0.840860
 H         5.000399         2.237261        -0.283479
 H         5.235584         0.939654         1.078376
 H         3.440833         1.144250        -1.950229
 H         1.500523        -0.317342        -2.173619
 H         2.305090        -1.707747        -1.344482
