19
Iteration:  3280
 C        -0.011114        -0.494628         0.215003
 C         1.447548        -0.214672         0.068400
 C         2.728465        -0.293112         1.069108
 C         3.090075         0.877820         0.134205
 C         4.565299         1.210292         0.169785
 O         4.780446         0.074851        -0.796087
 C         3.331449         0.309049        -1.223720
 C         2.171551        -0.639613        -1.252730
 O         1.698189         1.308142         0.117074
 H        -0.391977         0.045219         1.035857
 H        -0.468149        -0.231480        -0.752259
 H        -0.276480        -1.570801         0.251031
 H         2.560140         0.230788         1.996335
 H         3.304204        -1.251277         1.116853
 H         4.816347         2.299274        -0.182404
 H         5.059524         0.939060         1.041122
 H         3.369349         0.888972        -2.187861
 H         1.557501        -0.297872        -2.099266
 H         2.258998        -1.762621        -1.338804
