19
Iteration:  4845charge 0 multiplicity 1
 C         0.082591        -0.552894         0.246059
 C         1.435847        -0.122002         0.041957
 C         2.550251        -0.364122         1.011155
 C         3.101251         0.871277         0.274646
 C         4.628197         1.211516         0.112577
 O         4.778780         0.110500        -0.789946
 C         3.308930         0.287137        -1.186525
 C         2.201196        -0.679144        -1.345903
 O         1.722385         1.368871         0.121556
 H        -0.217613         0.020308         1.280051
 H        -0.643365        -0.028171        -0.460321
 H        -0.154078        -1.605862         0.384040
 H         2.158077        -0.250314         2.052992
 H         3.087496        -1.305005         0.776935
 H         4.753511         2.215757        -0.348360
 H         5.218337         1.087549         0.940985
 H         3.317721         1.029026        -1.975880
 H         1.510453        -0.431485        -2.182895
 H         2.580134        -1.740629        -1.444736
