19
Iteration:   113charge 0 multiplicity 1
 C        -0.107720        -0.548680         0.387947
 C         1.377113        -0.068369         0.031719
 C         2.532230        -0.475762         1.022992
 C         3.159402         0.758565         0.227390
 C         4.583472         1.270965         0.119243
 O         4.879691         0.231104        -0.811862
 C         3.360689         0.333010        -1.206768
 C         2.167037        -0.642405        -1.434337
 O         1.828267         1.297188         0.116951
 H        -0.513136        -0.135394         1.201999
 H        -0.904924        -0.552585        -0.484669
 H         0.016925        -1.611132         0.678604
 H         2.325948        -0.220220         2.052842
 H         3.044168        -1.393675         1.009931
 H         4.686582         2.351537        -0.240980
 H         5.149739         1.149705         0.982833
 H         3.333025         1.131628        -1.948092
 H         1.634398        -0.424110        -2.441645
 H         2.368135        -1.789847        -1.298153
