19
Iteration:  4301
 C        -0.060913        -0.519891         0.296412
 C         1.418325        -0.115594         0.066476
 C         2.517891        -0.411585         1.029662
 C         3.104867         0.801243         0.164954
 C         4.595041         1.251510         0.188576
 O         4.852753         0.199186        -0.870309
 C         3.397003         0.327206        -1.204909
 C         2.217142        -0.778279        -1.338825
 O         1.800250         1.399616         0.075407
 H        -0.462218        -0.199873         1.295425
 H        -0.747014        -0.251031        -0.461905
 H        -0.140419        -1.565235         0.441410
 H         2.362668         0.164193         2.014177
 H         2.877300        -1.428481         1.109759
 H         4.653360         2.284836        -0.186024
 H         5.139654         0.903816         1.168873
 H         3.205446         1.053234        -1.972443
 H         1.453960        -0.854795        -2.029919
 H         2.274657        -1.853517        -0.924879
