19
Iteration:  1100
 C        -0.018212        -0.582139         0.254930
 C         1.417982        -0.158936         0.036840
 C         2.522035        -0.470145         1.018350
 C         3.136634         0.827733         0.256957
 C         4.574106         1.252388         0.121752
 O         4.855158         0.151092        -0.792017
 C         3.332478         0.380169        -1.213661
 C         2.155509        -0.574773        -1.307525
 O         1.789876         1.323474         0.103119
 H        -0.279577        -0.438056         1.206923
 H        -0.795798        -0.251177        -0.464958
 H         0.100796        -1.721964         0.219269
 H         2.403628        -0.048332         2.078709
 H         2.947198        -1.521569         1.125712
 H         4.554850         2.197936        -0.442725
 H         5.422428         1.209183         0.996682
 H         3.414668         1.184527        -1.854555
 H         1.538165        -0.168068        -2.163486
 H         2.257651        -1.643475        -1.516229
