19
Iteration:  3287charge 0 multiplicity 1
 C        -0.050090        -0.511285         0.238830
 C         1.470794        -0.188704         0.022886
 C         2.673881        -0.302067         1.057344
 C         3.095676         0.906252         0.125066
 C         4.594556         1.215315         0.150382
 O         4.733764         0.093333        -0.749489
 C         3.350597         0.293902        -1.264870
 C         2.226240        -0.675672        -1.273366
 O         1.693600         1.292629         0.139929
 H        -0.653247        -0.043229         1.129266
 H        -0.489675         0.068756        -0.651182
 H        -0.047974        -1.615667         0.420048
 H         2.642616         0.232143         2.065999
 H         3.302983        -1.325815         1.066279
 H         5.092533         2.125589        -0.260332
 H         5.289026         1.060417         1.100306
 H         3.183961         0.922304        -2.134730
 H         1.551447        -0.256570        -2.124181
 H         2.274247        -1.718516        -1.358376
