19
Iteration:   173
 C        -0.069186        -0.599364         0.201001
 C         1.446910        -0.192412         0.065982
 C         2.736140        -0.322989         0.951091
 C         3.194528         0.882487         0.137686
 C         4.650657         1.177573         0.213864
 O         4.733332         0.046113        -0.852729
 C         3.279755         0.421787        -1.227273
 C         2.223055        -0.602007        -1.262930
 O         1.584983         1.330314         0.194017
 H        -0.260431         0.029899         1.275085
 H        -0.660177        -0.078116        -0.490839
 H        -0.303373        -1.685871         0.271751
 H         2.626727         0.118795         1.979870
 H         3.468071        -1.208098         0.941513
 H         4.970126         2.144124        -0.140884
 H         5.143058         0.911132         1.233046
 H         3.362244         1.287966        -2.053225
 H         1.704113        -0.672131        -2.185062
 H         2.632494        -1.572644        -1.073769
