19
Iteration:  3970
 C        -0.003378        -0.500031         0.307465
 C         1.419826        -0.158737         0.047927
 C         2.588204        -0.338824         1.012029
 C         3.066412         0.814085         0.104573
 C         4.575958         1.176990         0.214069
 O         4.815981         0.166290        -0.827237
 C         3.326554         0.379756        -1.270549
 C         2.273561        -0.714077        -1.256760
 O         1.705413         1.335587         0.110325
 H        -0.290230        -0.106481         1.251963
 H        -0.590779        -0.111745        -0.525909
 H        -0.102227        -1.587157         0.461290
 H         2.370897        -0.213426         2.106674
 H         3.280594        -1.251367         0.952088
 H         4.801885         2.243531        -0.035462
 H         5.187103         0.856341         1.011749
 H         3.197572         1.177331        -2.075995
 H         1.675755        -0.735221        -2.247678
 H         2.487399        -1.725978        -1.162764
