19
Iteration:  4537charge 0 multiplicity 1
 C        -0.076494        -0.535357         0.319063
 C         1.423837        -0.187614        -0.008921
 C         2.683259        -0.316049         0.920585
 C         3.133043         0.897208         0.156296
 C         4.592479         1.235846         0.234862
 O         4.747782         0.091791        -0.766849
 C         3.350532         0.311249        -1.230288
 C         2.207111        -0.702677        -1.286906
 O         1.740605         1.387201         0.086931
 H        -0.320873        -0.454154         1.391619
 H        -0.760494         0.020245        -0.277614
 H        -0.073782        -1.553748         0.066898
 H         2.404006         0.003606         1.954217
 H         3.227746        -1.250509         0.796822
 H         5.058359         2.152295        -0.253289
 H         5.043886         0.813059         1.078237
 H         3.299673         1.153088        -1.927124
 H         1.465432        -0.731115        -2.103324
 H         2.403962        -1.761370        -0.933480
