19
Iteration:  3941
 C        -0.018639        -0.462250         0.283409
 C         1.437496        -0.205049         0.069746
 C         2.631042        -0.322751         1.037881
 C         3.113799         0.845085         0.162071
 C         4.655868         1.204201         0.259062
 O         4.780152         0.267922        -0.904786
 C         3.345329         0.289127        -1.200960
 C         2.166026        -0.761164        -1.271570
 O         1.699830         1.266217         0.053080
 H        -0.511207         0.188732         1.073554
 H        -0.534257        -0.065901        -0.654198
 H        -0.223455        -1.558501         0.405742
 H         2.233243        -0.164257         2.011886
 H         3.359368        -1.211666         0.896745
 H         5.051334         2.208854         0.149610
 H         5.272048         0.747313         1.131262
 H         3.163903         1.157861        -1.879516
 H         1.606396        -0.524578        -2.230118
 H         2.259573        -1.886648        -1.184805
