19
Iteration:  2182charge 0 multiplicity 1
 C         0.003989        -0.601348         0.258518
 C         1.387857        -0.010297         0.011682
 C         2.487536        -0.418123         0.981738
 C         3.206410         0.737612         0.270856
 C         4.621951         1.198526         0.139001
 O         4.834612         0.198807        -0.860684
 C         3.356227         0.279654        -1.150528
 C         2.103169        -0.653241        -1.302162
 O         1.782453         1.399523         0.159466
 H        -0.460040        -0.035884         1.041517
 H        -0.663727        -0.478760        -0.586055
 H         0.140073        -1.767095         0.457368
 H         2.391121        -0.017193         2.030530
 H         2.918978        -1.472759         0.913401
 H         4.692821         2.078780        -0.551282
 H         5.318634         1.227486         0.957815
 H         3.218186         1.027160        -1.979294
 H         1.647737        -0.379687        -2.206365
 H         2.248794        -1.661335        -1.190772
