19
Iteration:  1045charge 0 multiplicity 1
 C         0.087525        -0.548051         0.341143
 C         1.460508        -0.171173         0.014976
 C         2.658145        -0.397270         0.935589
 C         3.087500         0.888099         0.138600
 C         4.592169         1.179937         0.331748
 O         4.724110         0.178094        -0.795775
 C         3.324679         0.352800        -1.275441
 C         2.153060        -0.647588        -1.363569
 O         1.679343         1.332154         0.107185
 H        -0.186823        -0.321134         1.270917
 H        -0.513671         0.060102        -0.366775
 H        -0.250990        -1.565299         0.095706
 H         2.485729        -0.142956         2.036094
 H         3.307506        -1.307208         0.814768
 H         5.142541         2.102014         0.074022
 H         5.106234         0.814500         1.358829
 H         3.339981         1.095016        -2.013327
 H         1.648535        -0.584977        -2.355996
 H         2.423406        -1.708415        -1.202336
