19
Iteration:  1295
 C         0.080971        -0.567784         0.282510
 C         1.445657        -0.137331        -0.036015
 C         2.483199        -0.423184         1.044955
 C         3.112089         0.775889         0.253736
 C         4.571281         1.143184         0.201763
 O         4.923445         0.265100        -0.910956
 C         3.361560         0.249089        -1.166203
 C         2.096422        -0.667592        -1.373663
 O         1.708641         1.435249         0.163370
 H        -0.149698        -0.007754         1.178544
 H        -0.837275        -0.343522        -0.412741
 H         0.101816        -1.708104         0.482299
 H         2.243296        -0.070280         2.034703
 H         3.078477        -1.298409         1.003690
 H         4.812678         2.250440        -0.335964
 H         5.194439         0.994847         1.035411
 H         3.210816         1.149949        -1.927431
 H         1.611933        -0.433824        -2.289090
 H         2.137878        -1.719315        -1.122440
