19
Iteration:   589charge 0 multiplicity 1
 C         0.036994        -0.544010         0.230767
 C         1.519622        -0.247569        -0.024777
 C         2.586261        -0.384314         1.027976
 C         3.077777         0.880557         0.231914
 C         4.638522         1.148160         0.200115
 O         4.740559         0.187248        -0.908562
 C         3.317027         0.402317        -1.239773
 C         2.192054        -0.645926        -1.329695
 O         1.701586         1.363037         0.267906
 H        -0.143988        -0.313171         1.188562
 H        -0.611388         0.132073        -0.390160
 H        -0.270798        -1.650813         0.010337
 H         2.224924        -0.046446         2.006925
 H         3.240480        -1.269367         1.096649
 H         4.896204         2.144395        -0.083006
 H         5.309771         0.716020         0.917624
 H         3.241892         1.014808        -2.101711
 H         1.420383        -0.594854        -2.188751
 H         2.525154        -1.760052        -1.189435
