19
Iteration:   933charge 0 multiplicity 1
 C         0.093702        -0.528670         0.300040
 C         1.467735        -0.117019        -0.045217
 C         2.627002        -0.414547         1.014312
 C         3.120186         0.771187         0.270677
 C         4.559112         1.172061         0.251497
 O         4.785054         0.214185        -0.892610
 C         3.371898         0.279131        -1.137740
 C         2.141187        -0.637886        -1.350399
 O         1.644832         1.364352         0.045157
 H        -0.063564        -0.280193         1.379268
 H        -0.569149         0.004907        -0.399572
 H        -0.041143        -1.530445         0.330192
 H         2.277746        -0.049069         1.981659
 H         3.228777        -1.316511         1.198028
 H         4.729770         2.305539         0.024696
 H         5.167618         0.860333         1.108081
 H         3.115200         1.071416        -1.826700
 H         1.707305        -0.408268        -2.285798
 H         2.324949        -1.721208        -1.422636
