19
Iteration:  2220charge 0 multiplicity 1
 C        -0.025801        -0.490878         0.219503
 C         1.484044        -0.232882         0.075677
 C         2.691273        -0.334559         1.026564
 C         3.084323         0.833172         0.149339
 C         4.650443         1.121150         0.147281
 O         4.737736         0.121150        -0.840067
 C         3.282800         0.335856        -1.192969
 C         2.262449        -0.626421        -1.309899
 O         1.664834         1.339714         0.199750
 H        -0.374569         0.221727         1.094789
 H        -0.421748        -0.008086        -0.783500
 H        -0.430396        -1.480650         0.288574
 H         2.498579         0.097098         2.000064
 H         3.365072        -1.158381         1.138597
 H         4.694197         2.232850        -0.190931
 H         5.204894         0.964106         1.172032
 H         3.198900         1.093387        -1.957031
 H         1.660392        -0.311013        -2.256299
 H         2.335334        -1.814027        -1.470701
