19
Iteration:  4302
 C        -0.058167        -0.525572         0.302824
 C         1.412750        -0.119313         0.061173
 C         2.524240        -0.408291         1.038720
 C         3.097279         0.811162         0.158548
 C         4.594964         1.241342         0.192858
 O         4.852223         0.202309        -0.867511
 C         3.387886         0.319759        -1.207116
 C         2.230853        -0.776045        -1.343311
 O         1.806298         1.397544         0.070862
 H        -0.468105        -0.172452         1.267480
 H        -0.766796        -0.212260        -0.432220
 H        -0.184522        -1.584480         0.418730
 H         2.369157         0.193230         2.019485
 H         2.908504        -1.425983         1.110811
 H         4.647355         2.276445        -0.192562
 H         5.147604         0.892890         1.173814
 H         3.194774         1.112390        -1.929069
 H         1.410431        -0.849836        -2.019542
 H         2.266064        -1.855638        -0.950796
