19
Iteration:   551charge 0 multiplicity 1
 C         0.034870        -0.574902         0.357115
 C         1.437040        -0.185344         0.017308
 C         2.668954        -0.420474         0.920932
 C         3.105484         0.886856         0.199844
 C         4.621239         1.153745         0.287198
 O         4.748677         0.168438        -0.803328
 C         3.383215         0.390133        -1.306172
 C         2.125832        -0.579541        -1.346860
 O         1.672840         1.310404         0.102323
 H        -0.131823        -0.379455         1.545099
 H        -0.696866         0.041692        -0.161790
 H        -0.200259        -1.590285         0.211910
 H         2.383264        -0.175268         1.951714
 H         3.258987        -1.336422         0.807075
 H         5.053298         2.170568        -0.001233
 H         5.142196         0.803752         1.267730
 H         3.461069         1.173307        -2.209434
 H         1.498391        -0.304146        -2.155002
 H         2.291984        -1.627075        -1.422392
