19
Iteration:    36charge 0 multiplicity 1
 C        -0.008489        -0.663651         0.216848
 C         1.417365        -0.123129         0.023377
 C         2.547707        -0.390863         1.065593
 C         3.106646         0.787071         0.219875
 C         4.573293         1.217048         0.050853
 O         4.866850         0.120668        -0.859874
 C         3.357524         0.315071        -1.179138
 C         2.105189        -0.518819        -1.233288
 O         1.814062         1.394605         0.162592
 H        -0.134577        -0.681730         1.228663
 H        -0.940134         0.002881        -0.171472
 H        -0.113228        -1.753770        -0.125997
 H         2.242658        -0.061421         2.052815
 H         3.042299        -1.317655         1.111625
 H         4.632727         2.190367        -0.503928
 H         5.169899         1.229369         0.884370
 H         3.293345         1.279595        -1.798575
 H         1.579090        -0.502628        -2.255197
 H         2.476207        -1.617699        -1.061884
