19
Iteration:  4678charge 0 multiplicity 1
 C         0.055953        -0.531661         0.346243
 C         1.392329        -0.108828        -0.054881
 C         2.489054        -0.300281         1.085994
 C         3.152598         0.756381         0.284195
 C         4.690943         1.217476         0.163346
 O         4.825839         0.165069        -0.815158
 C         3.318586         0.289149        -1.198745
 C         2.180496        -0.701708        -1.416354
 O         1.696398         1.342488         0.067291
 H        -0.198148        -0.396784         1.474059
 H        -0.708484         0.055079        -0.155515
 H        -0.219644        -1.588672         0.129085
 H         2.301998         0.069302         2.178627
 H         3.063062        -1.222916         0.962842
 H         4.838365         2.210700        -0.365702
 H         5.250288         1.037898         1.039489
 H         3.284812         0.995127        -2.017911
 H         1.635325        -0.434820        -2.355688
 H         2.365906        -1.808891        -1.270231
