19
Iteration:  4472
 C        -0.069781        -0.513873         0.275314
 C         1.438817        -0.164784         0.054864
 C         2.528206        -0.388724         1.050946
 C         3.130390         0.817344         0.232776
 C         4.575277         1.214924         0.139597
 O         4.852423         0.177677        -0.873582
 C         3.414767         0.242010        -1.176889
 C         2.167466        -0.691797        -1.279992
 O         1.776098         1.409077         0.085587
 H        -0.664798        -0.114769         1.168561
 H        -0.663960        -0.223794        -0.599077
 H        -0.086225        -1.592945         0.224914
 H         2.462066        -0.122023         2.114995
 H         3.129637        -1.232920         0.818985
 H         4.738888         2.249701        -0.303077
 H         5.070673         1.189170         1.067629
 H         3.245932         1.109110        -1.870696
 H         1.636076        -0.526934        -2.210558
 H         2.187955        -1.819410        -1.190159
