19
Iteration:  1250charge 0 multiplicity 1
 C         0.024615        -0.541198         0.267229
 C         1.490633        -0.225855         0.004458
 C         2.724805        -0.306570         0.993391
 C         3.063960         0.890284         0.137336
 C         4.599427         1.183795         0.142147
 O         4.822913         0.021668        -0.721112
 C         3.269900         0.423144        -1.243448
 C         2.172507        -0.596267        -1.343266
 O         1.596885         1.293021         0.191293
 H        -0.113320        -0.174640         1.346925
 H        -0.659799         0.145210        -0.392532
 H        -0.154018        -1.580534         0.095011
 H         2.413824        -0.091676         2.006875
 H         3.238012        -1.188491         0.822687
 H         4.980620         2.288148        -0.216929
 H         5.016240         0.907833         1.079202
 H         3.576204         1.190671        -2.068073
 H         1.489837        -0.400314        -2.136421
 H         2.666785        -1.583019        -1.376565
