19
Iteration:  1512charge 0 multiplicity 1
 C         0.029177        -0.524857         0.233584
 C         1.457213        -0.174221         0.004567
 C         2.523974        -0.457949         1.068752
 C         3.156920         0.821695         0.218792
 C         4.613574         1.249285         0.184948
 O         4.792973         0.233553        -0.927667
 C         3.300312         0.312101        -1.127316
 C         2.136791        -0.631937        -1.295484
 O         1.792647         1.318465         0.123215
 H        -0.358972         0.028631         0.992431
 H        -0.652160        -0.356286        -0.665039
 H        -0.089040        -1.534564         0.441142
 H         2.161084        -0.212020         2.080390
 H         3.000682        -1.461203         1.122549
 H         4.959474         2.200051        -0.177988
 H         5.205197         0.857040         1.103498
 H         3.115726         1.112224        -1.762790
 H         1.695871        -0.374227        -2.286492
 H         2.308264        -1.734655        -1.260409
