19
Iteration:  3764
 C        -0.028394        -0.419894         0.166673
 C         1.468325        -0.197282         0.039888
 C         2.763335        -0.331244         1.047387
 C         3.079948         0.924622         0.204464
 C         4.675000         1.256758         0.147238
 O         4.760799         0.161939        -0.812062
 C         3.296850         0.253234        -1.136372
 C         2.118347        -0.709631        -1.290026
 O         1.676018         1.226575         0.131472
 H        -0.425834         0.148931         0.978255
 H        -0.352570        -0.289086        -0.871092
 H        -0.348307        -1.476374         0.387228
 H         2.467429        -0.227992         2.069586
 H         3.307765        -1.275677         1.052481
 H         4.842720         2.233405        -0.416198
 H         5.480586         1.049827         0.899633
 H         3.179535         1.067274        -1.829018
 H         1.422660        -0.561826        -2.202154
 H         2.281779        -1.722175        -1.153554
