19
Iteration:  1967charge 0 multiplicity 1
 C         0.047904        -0.553005         0.257914
 C         1.482389        -0.155774         0.060043
 C         2.540773        -0.360662         1.080668
 C         3.119583         0.835481         0.115813
 C         4.605899         1.260072         0.154034
 O         4.771339         0.112694        -0.781235
 C         3.362846         0.258986        -1.222506
 C         2.145369        -0.595980        -1.345065
 O         1.743259         1.330961         0.159842
 H        -0.314049        -0.443338         1.198293
 H        -0.746044        -0.216703        -0.435676
 H        -0.016115        -1.600980         0.086262
 H         2.201453        -0.057115         2.072644
 H         2.993432        -1.303668         0.992729
 H         4.852593         2.194549        -0.413522
 H         5.183009         1.215067         1.065033
 H         3.380694         1.205135        -1.901099
 H         1.585782        -0.168178        -2.229887
 H         2.318393        -1.711736        -1.525641
