19
Iteration:  3244charge 0 multiplicity 1
 C        -0.045593        -0.524506         0.240207
 C         1.418775        -0.088005         0.038322
 C         2.520356        -0.381167         0.992032
 C         3.152495         0.783450         0.211463
 C         4.627796         1.232290         0.100195
 O         4.779430         0.195494        -0.848502
 C         3.354388         0.246606        -1.140281
 C         2.209489        -0.711626        -1.264923
 O         1.769186         1.358384         0.092919
 H        -0.390176         0.065489         1.207762
 H        -0.927069        -0.246383        -0.446106
 H         0.047992        -1.529817         0.740144
 H         2.152669        -0.087418         2.043085
 H         3.071296        -1.433307         1.198809
 H         4.686415         2.368263        -0.175731
 H         5.277023         1.066901         1.063035
 H         3.482000         0.972425        -1.960110
 H         1.855742        -0.493770        -2.362770
 H         2.442348        -1.745111        -1.175923
