19
Iteration:  2594charge 0 multiplicity 1
 C         0.015586        -0.530340         0.273404
 C         1.425974        -0.154100         0.022389
 C         2.578190        -0.373372         0.986690
 C         3.062078         0.918541         0.183062
 C         4.585561         1.200262         0.197603
 O         4.798497         0.140708        -0.846398
 C         3.312516         0.301918        -1.226173
 C         2.183417        -0.709148        -1.320880
 O         1.768028         1.368966         0.180059
 H        -0.275888        -0.175214         1.259054
 H        -0.629196         0.047031        -0.371652
 H        -0.168981        -1.641369         0.106169
 H         2.455978         0.028788         1.955639
 H         3.189513        -1.205288         1.025743
 H         5.015175         2.109457        -0.151771
 H         5.036841         0.910974         1.227018
 H         3.482032         0.939098        -2.134026
 H         1.648121        -0.826395        -2.276990
 H         2.546691        -1.700683        -1.197663
