19
Iteration:  3298charge 0 multiplicity 1
 C        -0.022081        -0.509083         0.275811
 C         1.456750        -0.137146         0.088643
 C         2.609570        -0.304218         0.991124
 C         3.110461         0.897533         0.124223
 C         4.702640         1.255103         0.136852
 O         4.701015         0.090160        -0.724474
 C         3.388098         0.299286        -1.241182
 C         2.185370        -0.718028        -1.338679
 O         1.683108         1.318375         0.138647
 H        -0.364296        -0.177831         1.324241
 H        -0.757040        -0.209770        -0.533532
 H        -0.160703        -1.616131         0.156823
 H         2.272539        -0.126000         2.046325
 H         3.268716        -1.260891         0.950091
 H         5.008251         2.070813        -0.493202
 H         5.168088         1.107811         1.182187
 H         3.506681         1.103836        -1.956681
 H         1.559529        -0.618324        -2.289903
 H         2.506501        -1.727037        -1.277838
