19
Iteration:  2482charge 0 multiplicity 1
 C         0.008158        -0.587969         0.342140
 C         1.390766        -0.173133        -0.023050
 C         2.590130        -0.256549         1.017868
 C         3.153339         0.835797         0.240076
 C         4.581656         1.200099         0.182036
 O         4.795131         0.115102        -0.868156
 C         3.443947         0.315913        -1.141373
 C         2.116813        -0.602031        -1.376092
 O         1.739901         1.296557         0.091538
 H        -0.218371        -0.212341         1.415198
 H        -0.839196        -0.179093        -0.297839
 H        -0.182839        -1.618952         0.186168
 H         2.174555         0.127419         1.991600
 H         3.183698        -1.181648         1.275657
 H         4.938782         2.210332        -0.166135
 H         5.058656         0.835906         1.078349
 H         3.306015         1.099716        -1.979078
 H         1.585407        -0.278455        -2.275257
 H         2.345862        -1.694463        -1.532220
