19
Iteration:  2325charge 0 multiplicity 1
 C        -0.015403        -0.521900         0.253649
 C         1.506885        -0.222123         0.013542
 C         2.698423        -0.305227         0.952920
 C         3.114011         0.891884         0.186010
 C         4.592730         1.222841         0.163083
 O         4.650720         0.037952        -0.822271
 C         3.329362         0.292120        -1.135091
 C         2.239872        -0.657072        -1.307508
 O         1.685376         1.386863         0.174231
 H        -0.330209        -0.007994         1.100835
 H        -0.484391        -0.112790        -0.636727
 H        -0.181257        -1.629879         0.361383
 H         2.582514        -0.003341         2.028043
 H         3.397856        -1.194377         0.825525
 H         4.953252         2.199862        -0.188014
 H         5.114917         0.845098         1.048292
 H         3.213898         1.048295        -2.026077
 H         1.593042        -0.243299        -2.009865
 H         2.493057        -1.625388        -1.477570
