19
Iteration:  2267
 C        -0.000420        -0.536608         0.397478
 C         1.406339        -0.135097        -0.022759
 C         2.570444        -0.378279         0.965431
 C         3.110106         0.791333         0.202614
 C         4.494235         1.226879         0.182894
 O         4.823357         0.166345        -0.814295
 C         3.462935         0.204003        -1.177485
 C         2.088892        -0.615760        -1.343202
 O         1.797264         1.433157         0.074851
 H        -0.185290        -0.590469         1.521466
 H        -0.795305        -0.077386        -0.093189
 H        -0.021183        -1.584304        -0.048951
 H         2.281181        -0.077267         1.981694
 H         3.143513        -1.325323         0.993374
 H         4.814992         2.196968        -0.185069
 H         5.265182         0.839007         1.054974
 H         3.505969         1.078752        -1.979636
 H         1.531590        -0.479891        -2.321620
 H         2.267891        -1.760214        -1.380138
