19
Iteration:  2841charge 0 multiplicity 1
 C        -0.029602        -0.548058         0.351710
 C         1.352908        -0.093465         0.015137
 C         2.551466        -0.390123         1.026973
 C         3.119666         0.797985         0.146571
 C         4.553292         1.233861         0.190639
 O         4.879086         0.178969        -0.811936
 C         3.414814         0.268805        -1.273793
 C         2.163442        -0.686746        -1.271511
 O         1.760548         1.390557         0.068224
 H        -0.156111        -0.378114         1.487699
 H        -0.698563        -0.172752        -0.444013
 H         0.060211        -1.627163         0.249773
 H         2.325589        -0.024395         2.007248
 H         2.812492        -1.384429         0.989285
 H         4.784764         2.263912        -0.151253
 H         5.083173         1.022605         1.033458
 H         3.456898         0.927539        -2.124046
 H         1.685219        -0.495795        -2.230310
 H         2.231044        -1.743038        -0.977874
