19
Iteration:  3063
 C        -0.022854        -0.549325         0.239186
 C         1.482432        -0.137133         0.012505
 C         2.574902        -0.386970         1.001360
 C         3.152364         0.787799         0.277080
 C         4.607949         1.307282         0.168282
 O         4.697724         0.133913        -0.831410
 C         3.341794         0.298039        -1.143352
 C         2.173206        -0.705139        -1.319516
 O         1.808187         1.386854         0.082521
 H        -0.183798         0.248691         0.983816
 H        -0.757335        -0.371403        -0.639210
 H        -0.165644        -1.659916         0.633741
 H         2.202333        -0.093936         1.964680
 H         2.963171        -1.418794         1.151948
 H         4.806795         2.275352        -0.403665
 H         5.431842         0.970391         0.962558
 H         3.195031         1.171432        -1.871900
 H         1.454850        -0.607010        -2.225234
 H         2.569888        -1.737263        -1.228229
