19
Iteration:  1361
 C         0.039407        -0.467963         0.172620
 C         1.440951        -0.188009         0.025945
 C         2.694773        -0.371722         1.013005
 C         3.126433         0.873382         0.126189
 C         4.649461         1.227505         0.187710
 O         4.772006         0.137955        -0.783251
 C         3.267351         0.346355        -1.229989
 C         2.154644        -0.674770        -1.321722
 O         1.689673         1.253244         0.248622
 H        -0.293710        -0.158427         1.126275
 H        -0.627880         0.029755        -0.623114
 H        -0.241884        -1.562005         0.189500
 H         2.397882        -0.016391         1.969036
 H         3.148242        -1.332505         0.996874
 H         4.954181         2.231679        -0.388065
 H         5.080666         1.198753         1.131267
 H         3.180196         1.217983        -2.014401
 H         1.471979        -0.606648        -2.154130
 H         2.396125        -1.719759        -1.186282
