19
Iteration:   944
 C         0.045036        -0.484580         0.263142
 C         1.467138        -0.175430        -0.026341
 C         2.636034        -0.344551         0.965576
 C         3.106530         0.861361         0.212421
 C         4.621481         1.155946         0.251702
 O         4.787859         0.236739        -0.860656
 C         3.313185         0.327438        -1.178943
 C         2.158838        -0.713810        -1.359452
 O         1.660156         1.261787         0.170642
 H        -0.214026         0.066725         1.195164
 H        -0.657939        -0.007756        -0.451879
 H        -0.180418        -1.483732         0.261448
 H         2.217650        -0.063538         1.928530
 H         3.275115        -1.245667         0.993260
 H         4.947615         2.237698        -0.010631
 H         5.177145         0.738413         1.109487
 H         3.296092         1.078046        -1.969016
 H         1.673033        -0.600844        -2.297736
 H         2.443673        -1.729642        -1.084426
