19
Iteration:  2351
 C        -0.037948        -0.599959         0.266242
 C         1.455401        -0.133554        -0.035152
 C         2.518066        -0.388673         1.056288
 C         3.117452         0.815633         0.175182
 C         4.576862         1.217693         0.193124
 O         4.835313         0.148965        -0.866067
 C         3.351972         0.347249        -1.290755
 C         2.146238        -0.657501        -1.291399
 O         1.811476         1.390470         0.180072
 H        -0.255044         0.142926         1.233444
 H        -0.618842        -0.312468        -0.733597
 H         0.043602        -1.568749         0.757164
 H         2.262828        -0.064192         2.070405
 H         2.978445        -1.402334         1.053081
 H         4.903857         2.263400        -0.131310
 H         5.216794         0.859725         0.957962
 H         3.108323         1.136682        -1.987364
 H         1.354756        -0.713039        -2.088003
 H         2.451928        -1.697917        -0.871032
