19
Iteration:  4679charge 0 multiplicity 1
 C         0.050123        -0.537945         0.345365
 C         1.395864        -0.114395        -0.051511
 C         2.493537        -0.294338         1.078867
 C         3.146360         0.766057         0.276430
 C         4.695005         1.203254         0.167539
 O         4.824119         0.169916        -0.812063
 C         3.317918         0.281007        -1.202106
 C         2.185257        -0.693326        -1.420036
 O         1.699880         1.343787         0.072525
 H        -0.179528        -0.391546         1.485687
 H        -0.694608         0.082188        -0.130637
 H        -0.203571        -1.566529         0.126788
 H         2.268347         0.079699         2.193194
 H         3.024260        -1.235016         0.934433
 H         4.808148         2.236004        -0.384594
 H         5.254962         1.060863         1.056045
 H         3.278431         1.006761        -2.001353
 H         1.630652        -0.488521        -2.359242
 H         2.349476        -1.843710        -1.251714
