19
Iteration:  2722
 C         0.031175        -0.458319         0.290847
 C         1.450715        -0.166683        -0.039580
 C         2.617287        -0.289497         1.100753
 C         3.103358         0.892070         0.221180
 C         4.591226         1.139463         0.185521
 O         4.806837         0.123168        -0.889420
 C         3.365283         0.346057        -1.194295
 C         2.189660        -0.651295        -1.340202
 O         1.651879         1.230783         0.103942
 H        -0.252414         0.234695         1.199651
 H        -0.682956        -0.525887        -0.553028
 H        -0.096128        -1.450938         0.701839
 H         2.218922         0.127630         2.065860
 H         3.126425        -1.351300         1.106924
 H         4.798910         2.226819        -0.042732
 H         5.076156         0.845481         1.100454
 H         3.450049         1.124049        -1.961437
 H         1.683721        -0.443603        -2.305973
 H         2.479897        -1.711846        -1.267363
