19
Iteration:   792charge 0 multiplicity 1
 C        -0.086204        -0.510775         0.301975
 C         1.443151        -0.235040         0.023738
 C         2.630203        -0.391460         1.002301
 C         3.079954         0.769443         0.186941
 C         4.588005         1.193952         0.189729
 O         4.799320         0.286602        -0.862560
 C         3.331230         0.298194        -1.226180
 C         2.165509        -0.660514        -1.329623
 O         1.829641         1.312706         0.129519
 H        -0.331936         0.046261         1.249229
 H        -0.648742        -0.045971        -0.511663
 H        -0.320528        -1.532717         0.475462
 H         2.363783         0.006912         2.001037
 H         3.255398        -1.323979         1.181369
 H         4.672026         2.218943        -0.068170
 H         5.057646         1.071074         1.225274
 H         3.242343         1.099240        -1.896145
 H         1.628294        -0.499310        -2.246066
 H         2.527690        -1.713241        -1.300693
