19
Iteration:   261charge 0 multiplicity 1
 C         0.076370        -0.414664         0.200233
 C         1.484147        -0.225354         0.013897
 C         2.751168        -0.464428         0.987782
 C         3.076614         0.904494         0.198892
 C         4.544672         1.309138         0.178572
 O         4.732560         0.088241        -0.828701
 C         3.315759         0.336497        -1.215210
 C         2.128450        -0.697039        -1.319415
 O         1.676702         1.297902         0.231590
 H        -0.175221         0.049030         1.258365
 H        -0.563376         0.110156        -0.467112
 H        -0.230564        -1.498992         0.251496
 H         2.486542        -0.351362         2.075267
 H         3.563586        -1.190050         0.747639
 H         4.797770         2.183399        -0.424076
 H         5.160127         1.204626         1.128449
 H         3.152947         1.210626        -2.032313
 H         1.626234        -0.691841        -2.283326
 H         2.430217        -1.708960        -1.061599
