19
Iteration:  4042charge 0 multiplicity 1
 C         0.015961        -0.567900         0.268354
 C         1.481922        -0.178265        -0.022011
 C         2.703707        -0.271474         0.942432
 C         3.109059         0.923813         0.164387
 C         4.571200         1.212962         0.202087
 O         4.737511         0.118811        -0.721737
 C         3.365086         0.267877        -1.262014
 C         2.120400        -0.698967        -1.354087
 O         1.703150         1.361618         0.182216
 H        -0.244109        -0.288538         1.346845
 H        -0.604288        -0.111695        -0.517009
 H        -0.147913        -1.673008         0.277369
 H         2.403326        -0.017302         2.001926
 H         3.352033        -1.066654         0.942418
 H         4.948257         2.104461        -0.332990
 H         4.970924         1.087443         1.252216
 H         3.392448         1.022111        -2.059532
 H         1.396124        -0.687695        -2.106230
 H         2.400368        -1.827031        -1.267966
