19
Iteration:  1348charge 0 multiplicity 1
 C         0.038345        -0.453499         0.196628
 C         1.527638        -0.249143         0.043717
 C         2.659815        -0.338876         0.938855
 C         3.144818         0.831422         0.276402
 C         4.602218         1.212080         0.192729
 O         4.782333         0.137126        -0.840966
 C         3.240861         0.381269        -1.174228
 C         2.136980        -0.729311        -1.307520
 O         1.629593         1.296027         0.205979
 H        -0.352293         0.267528         0.959482
 H        -0.271289         0.008166        -0.848837
 H        -0.204967        -1.445998         0.228608
 H         2.498176        -0.074291         1.987334
 H         3.410614        -1.080924         0.881286
 H         4.739349         2.248622        -0.244612
 H         5.323208         0.963983         0.905533
 H         3.291524         1.118254        -2.020155
 H         1.567529        -0.509819        -2.211728
 H         2.519970        -1.796616        -1.294673
