19
Iteration:  4032
 C        -0.005587        -0.594397         0.229662
 C         1.434332        -0.156093         0.106748
 C         2.699855        -0.344768         0.961147
 C         3.096640         0.868067         0.100085
 C         4.605852         1.324206         0.191325
 O         4.766214         0.052783        -0.722574
 C         3.342110         0.276775        -1.242149
 C         2.137747        -0.659076        -1.313458
 O         1.697191         1.378837         0.128465
 H        -0.341890        -0.284659         1.262612
 H        -0.807236        -0.186826        -0.370179
 H         0.020337        -1.705178         0.163295
 H         2.484128        -0.076918         2.050586
 H         3.332202        -1.149012         0.840590
 H         5.004821         2.297455        -0.252606
 H         5.157923         1.150807         1.146648
 H         3.420524         1.061118        -2.003348
 H         1.631574        -0.323328        -2.218011
 H         2.275659        -1.784384        -1.338707
