19
Iteration:  3875charge 0 multiplicity 1
 C         0.040726        -0.564973         0.275100
 C         1.484491        -0.210239         0.017960
 C         2.669958        -0.317129         0.993709
 C         3.026420         0.893165         0.144470
 C         4.612104         1.246733         0.152965
 O         4.802214         0.056301        -0.769675
 C         3.368837         0.291595        -1.220979
 C         2.130352        -0.639605        -1.284460
 O         1.657159         1.396959         0.167365
 H        -0.478164        -0.215447         1.190676
 H        -0.377479         0.055852        -0.611577
 H        -0.204447        -1.666817         0.181912
 H         2.533491        -0.159304         2.027441
 H         3.449008        -1.138143         0.772656
 H         4.976626         2.208910        -0.264441
 H         5.165364         1.042030         1.169026
 H         3.285004         0.963508        -2.091899
 H         1.490006        -0.521864        -2.223367
 H         2.141222        -1.732410        -1.280426
