19
Iteration:  4487
 C        -0.058914        -0.565199         0.173657
 C         1.378891        -0.138306         0.061388
 C         2.626365        -0.319565         1.108286
 C         3.134837         0.784714         0.230835
 C         4.629128         1.306890         0.095553
 O         4.833898         0.141176        -0.824183
 C         3.347302         0.233706        -1.152640
 C         2.111119        -0.630768        -1.291681
 O         1.777953         1.309941         0.097913
 H        -0.252359        -0.160050         1.250702
 H        -0.563690         0.106449        -0.570582
 H        -0.270575        -1.690660         0.149803
 H         2.168195        -0.028373         2.126234
 H         3.050739        -1.340876         1.179049
 H         4.572596         2.228558        -0.467871
 H         5.455821         1.071155         0.869195
 H         3.447466         0.998172        -1.945179
 H         1.539668        -0.258227        -2.140718
 H         2.368549        -1.721262        -1.360237
