19
Iteration:  1898charge 0 multiplicity 1
 C         0.029347        -0.539936         0.274020
 C         1.391069        -0.186748        -0.056130
 C         2.515525        -0.384176         1.074723
 C         3.149681         0.798873         0.287391
 C         4.595930         1.251531         0.216699
 O         4.916781         0.186791        -0.905868
 C         3.334768         0.300569        -1.127395
 C         2.097583        -0.653389        -1.372875
 O         1.782840         1.336664         0.066880
 H        -0.162709        -0.184547         1.394959
 H        -0.847870        -0.162088        -0.201607
 H        -0.316248        -1.682558         0.239429
 H         2.208345         0.064230         2.059308
 H         3.161403        -1.354806         1.183820
 H         4.817653         2.277080        -0.340529
 H         5.009815         1.132189         1.171978
 H         3.220932         1.058744        -2.018689
 H         1.317263        -0.363729        -2.132831
 H         2.367935        -1.718042        -1.322728
