19
Iteration:  4840
 C         0.040910        -0.504444         0.281948
 C         1.471050        -0.145252         0.054438
 C         2.556344        -0.364530         1.003734
 C         3.105666         0.857476         0.234538
 C         4.629650         1.183756         0.167933
 O         4.778394         0.125485        -0.807259
 C         3.298799         0.314137        -1.222451
 C         2.185019        -0.681666        -1.332747
 O         1.692206         1.348063         0.097285
 H        -0.150679         0.003237         1.197544
 H        -0.506786        -0.148606        -0.573304
 H        -0.022996        -1.611467         0.376471
 H         2.170422        -0.322118         2.041608
 H         3.185094        -1.262949         1.004697
 H         4.798624         2.113339        -0.403022
 H         5.337225         1.107672         1.116680
 H         3.311716         1.158411        -1.955538
 H         1.632019        -0.366219        -2.211786
 H         2.589368        -1.679546        -1.308799
