19
Iteration:  3341charge 0 multiplicity 1
 C         0.005223        -0.576499         0.407491
 C         1.450766        -0.119276         0.018852
 C         2.523236        -0.328106         1.046476
 C         3.112840         0.844948         0.154285
 C         4.625274         1.320889         0.209842
 O         4.818574         0.122266        -0.761303
 C         3.348024         0.237844        -1.217809
 C         2.113190        -0.661293        -1.386623
 O         1.780032         1.334965        -0.000969
 H        -0.343037        -0.446157         1.498479
 H        -0.715724        -0.017349        -0.292318
 H        -0.076002        -1.618255         0.016801
 H         2.523685         0.113754         2.053088
 H         2.884287        -1.358831         1.329685
 H         4.863272         2.314461        -0.113526
 H         5.205546         0.745627         1.062889
 H         3.439837         0.881967        -2.109929
 H         1.687688        -0.360021        -2.405675
 H         2.140044        -1.707851        -1.462470
