19
Iteration:  2479charge 0 multiplicity 1
 C        -0.004381        -0.582897         0.345714
 C         1.398069        -0.160551        -0.023118
 C         2.594782        -0.266274         1.045681
 C         3.139375         0.825937         0.232265
 C         4.572182         1.210873         0.162907
 O         4.805734         0.101949        -0.870809
 C         3.440506         0.331615        -1.127581
 C         2.121954        -0.594693        -1.392278
 O         1.750901         1.287459         0.089216
 H        -0.223664        -0.304759         1.326962
 H        -0.836587        -0.141134        -0.240189
 H        -0.116361        -1.637390         0.179269
 H         2.186227         0.177802         2.003504
 H         3.152239        -1.234947         1.355111
 H         4.930047         2.237675        -0.159215
 H         4.966515         0.869578         1.103715
 H         3.353063         1.066321        -1.987084
 H         1.524446        -0.303165        -2.238767
 H         2.339724        -1.648275        -1.591553
