19
Iteration:  3964charge 0 multiplicity 1
 C         0.007199        -0.487171         0.311980
 C         1.407583        -0.169283        -0.019743
 C         2.635615        -0.388444         1.030239
 C         3.090234         0.826899         0.138316
 C         4.575695         1.145022         0.221719
 O         4.847658         0.186778        -0.846412
 C         3.275650         0.398776        -1.278012
 C         2.233498        -0.707434        -1.195380
 O         1.664651         1.333968         0.070028
 H        -0.421249         0.098621         1.203992
 H        -0.664635        -0.094671        -0.508364
 H        -0.113109        -1.580560         0.346211
 H         2.736562        -0.067133         2.077135
 H         3.215882        -1.296098         0.829680
 H         4.779312         2.222847         0.101220
 H         5.218507         0.866728         1.159551
 H         3.367201         1.161371        -2.020617
 H         1.659034        -0.774288        -2.078471
 H         2.642792        -1.804360        -1.030506
