19
Iteration:   627charge 0 multiplicity 1
 C        -0.091821        -0.530123         0.167734
 C         1.350259        -0.166172         0.031787
 C         2.647706        -0.491232         1.108146
 C         3.155885         0.725366         0.313848
 C         4.582456         1.240187         0.099891
 O         4.881887         0.241960        -0.904471
 C         3.380528         0.292062        -1.194851
 C         2.065259        -0.555464        -1.271868
 O         1.819066         1.336377         0.153169
 H        -0.699081        -0.155041         1.209553
 H        -0.654938        -0.385776        -0.711824
 H        -0.059370        -1.539179         0.305046
 H         2.451309        -0.531958         2.193915
 H         3.204721        -1.404266         0.844095
 H         4.132754         2.262773        -0.234528
 H         5.474830         1.487842         0.793732
 H         3.351754         1.143075        -1.888743
 H         1.540859        -0.271148        -2.142334
 H         2.294129        -1.551872        -1.230214
