19
Iteration:  3346charge 0 multiplicity 1
 C        -0.032987        -0.554779         0.387239
 C         1.466495        -0.155065         0.023585
 C         2.542473        -0.332499         1.045918
 C         3.175554         0.846969         0.116694
 C         4.635848         1.284013         0.247631
 O         4.851215         0.146126        -0.762636
 C         3.314477         0.221558        -1.255343
 C         2.094665        -0.647512        -1.367791
 O         1.738772         1.328713         0.025366
 H        -0.313745        -0.402854         1.377118
 H        -0.722741        -0.120997        -0.313585
 H        -0.284191        -1.605636         0.064060
 H         2.444758         0.314883         1.947473
 H         3.013362        -1.338333         1.296593
 H         5.028974         2.252857        -0.209804
 H         5.082234         0.999111         1.119016
 H         3.402680         0.990264        -2.024252
 H         1.647427        -0.355486        -2.283250
 H         2.233491        -1.800802        -1.381107
