19
Iteration:   686charge 0 multiplicity 1
 C         0.013312        -0.596152         0.415260
 C         1.456737        -0.219939         0.048918
 C         2.662165        -0.364543         0.930014
 C         3.097058         0.867214         0.179090
 C         4.653385         1.174438         0.264871
 O         4.742091         0.110041        -0.865645
 C         3.327887         0.400923        -1.184962
 C         2.183056        -0.561471        -1.331241
 O         1.668716         1.353476         0.026789
 H        -0.263283        -0.083942         1.328494
 H        -0.667923        -0.080423        -0.366208
 H        -0.283284        -1.763867         0.436392
 H         2.477375        -0.140247         1.980717
 H         3.083426        -1.372382         0.800265
 H         5.009754         2.245597         0.104321
 H         5.094726         0.640055         1.203535
 H         3.221608         1.305764        -1.995421
 H         1.784439        -0.443919        -2.363650
 H         2.571237        -1.644137        -1.401469
