19
Iteration:  4943
 C         0.016632        -0.501182         0.352455
 C         1.402303        -0.101354        -0.074020
 C         2.486929        -0.403093         1.016766
 C         3.155261         0.846768         0.235343
 C         4.576826         1.228547         0.223773
 O         4.794464         0.135082        -0.863859
 C         3.398354         0.291958        -1.228640
 C         2.244007        -0.660352        -1.306142
 O         1.733270         1.321182         0.095491
 H        -0.347330         0.036836         1.308866
 H        -0.710952        -0.206202        -0.415891
 H         0.021746        -1.535076         0.515493
 H         2.103110        -0.003125         1.955203
 H         2.978671        -1.398372         0.973848
 H         4.796650         2.289585        -0.121276
 H         5.164773         0.951857         1.042294
 H         3.369164         0.963066        -2.099051
 H         1.654410        -0.601376        -2.207409
 H         2.491741        -1.729369        -1.123605
