19
Iteration:  1799
 C         0.012168        -0.658736         0.286901
 C         1.375571        -0.102979        -0.012301
 C         2.532362        -0.361707         1.002930
 C         3.172704         0.812440         0.177480
 C         4.691099         1.202069         0.177150
 O         4.862396         0.132676        -0.796441
 C         3.371353         0.325485        -1.201198
 C         2.078409        -0.579224        -1.311278
 O         1.734899         1.381779         0.114375
 H        -0.279100        -0.323022         1.327558
 H        -0.778693        -0.333210        -0.333048
 H        -0.059659        -1.774552         0.306039
 H         2.172244         0.083322         1.962806
 H         2.821996        -1.436979         1.127890
 H         4.679467         2.285652        -0.209137
 H         5.348618         1.116949         0.997050
 H         3.210754         1.075700        -2.056600
 H         1.566372        -0.417512        -2.333475
 H         2.291661        -1.670249        -1.140665
