19
Iteration:   500
 C         0.013761        -0.592952         0.241175
 C         1.416647        -0.172376         0.078846
 C         2.608001        -0.512789         0.921459
 C         3.108523         0.797744         0.186287
 C         4.607863         1.311784         0.093820
 O         4.794958         0.113597        -0.772462
 C         3.341814         0.340296        -1.171894
 C         2.128076        -0.514755        -1.301776
 O         1.749786         1.372784         0.191629
 H        -0.421366        -0.006398         1.087953
 H        -0.595610        -0.388265        -0.623322
 H         0.003038        -1.704842         0.462574
 H         2.649057        -0.222888         1.991624
 H         3.056523        -1.497896         0.735702
 H         4.757691         2.215495        -0.418626
 H         5.318178         1.174958         0.979091
 H         3.370818         1.241025        -1.721026
 H         1.467797        -0.320669        -2.214538
 H         2.308727        -1.672403        -1.382744
