19
Iteration:  1543
 C        -0.072573        -0.524795         0.260581
 C         1.423126        -0.204773         0.041000
 C         2.689391        -0.367415         0.955730
 C         3.135721         0.872084         0.090802
 C         4.622437         1.142638         0.248283
 O         4.750415         0.163016        -0.848550
 C         3.280434         0.401600        -1.227469
 C         2.248947        -0.680951        -1.300015
 O         1.674333         1.332023         0.199333
 H        -0.249347        -0.088863         1.208661
 H        -0.561595         0.028286        -0.520941
 H        -0.332200        -1.489844         0.226879
 H         2.449585         0.012723         1.968659
 H         3.251804        -1.327331         0.905848
 H         5.070744         2.058405         0.012846
 H         5.136341         0.910361         1.313028
 H         3.331976         1.108378        -1.991775
 H         1.811429        -0.624435        -2.258339
 H         2.685918        -1.685769        -1.132892
