19
Iteration:   969charge 0 multiplicity 1
 C        -0.123501        -0.519496         0.187212
 C         1.428564        -0.223361         0.150828
 C         2.700459        -0.493507         1.003035
 C         3.110151         0.847875         0.138969
 C         4.555777         1.230594         0.198338
 O         4.760650         0.156807        -0.859204
 C         3.340094         0.408388        -1.259589
 C         2.253875        -0.643708        -1.272581
 O         1.745851         1.372032         0.199194
 H        -0.533527         0.067279         0.894598
 H        -0.613923        -0.135144        -0.741381
 H        -0.479990        -1.588448         0.246886
 H         2.522564        -0.045488         2.051082
 H         3.175168        -1.521811         0.936866
 H         4.794866         2.161086        -0.090171
 H         5.289008         0.888528         1.085900
 H         3.437071         1.162785        -2.054501
 H         1.636910        -0.604217        -2.232404
 H         2.808343        -1.642592        -1.114687
