19
Iteration:   277charge 0 multiplicity 1
 C        -0.011113        -0.465298         0.274529
 C         1.517150        -0.278808         0.109021
 C         2.739702        -0.385036         0.937914
 C         3.102762         0.813696         0.149291
 C         4.522146         1.194620         0.145055
 O         4.661645         0.121531        -0.787655
 C         3.291598         0.427194        -1.242711
 C         2.243342        -0.641899        -1.289766
 O         1.731463         1.319037         0.190971
 H        -0.447278         0.094360         1.034081
 H        -0.310944        -0.064199        -0.793665
 H        -0.360962        -1.491554         0.287858
 H         2.666225        -0.036586         1.942430
 H         3.237857        -1.339411         0.839614
 H         4.720391         2.227537        -0.258650
 H         5.077847         1.042407         1.065699
 H         3.326524         1.142341        -1.980757
 H         1.461594        -0.501506        -2.062857
 H         2.794908        -1.617638        -1.347474
