19
Iteration:  2878charge 0 multiplicity 1
 C         0.022332        -0.485390         0.249761
 C         1.535431        -0.188365         0.047500
 C         2.593133        -0.363229         1.106420
 C         3.085643         0.861048         0.239851
 C         4.617973         1.194461         0.152930
 O         4.787832         0.158541        -0.868401
 C         3.373621         0.290642        -1.158544
 C         2.173887        -0.648229        -1.296238
 O         1.662102         1.340986         0.031503
 H        -0.496621         0.154068         0.975235
 H        -0.713032        -0.446739        -0.592158
 H        -0.196511        -1.581224         0.505594
 H         2.351706         0.033455         2.117510
 H         3.247527        -1.375235         1.149450
 H         4.858934         2.161409        -0.243249
 H         5.248613         0.830664         1.085591
 H         3.206535         0.997590        -1.976377
 H         1.482819        -0.504164        -2.149439
 H         2.316707        -1.707858        -1.411384
