19
Iteration:  1110
 C         0.048095        -0.604181         0.224390
 C         1.446311        -0.173960        -0.046772
 C         2.522517        -0.434611         1.046125
 C         3.128069         0.773685         0.250528
 C         4.604913         1.267255         0.143314
 O         4.887258         0.165308        -0.851906
 C         3.342042         0.297900        -1.133683
 C         2.074133        -0.595426        -1.319107
 O         1.732523         1.401762         0.186467
 H        -0.203643        -0.151870         1.100885
 H        -0.650935        -0.191851        -0.572052
 H        -0.016913        -1.751129         0.209372
 H         2.112347        -0.154313         2.060790
 H         3.114929        -1.365657         0.956947
 H         4.673869         2.200870        -0.428383
 H         5.355143         1.341285         1.007172
 H         3.239945         0.983964        -1.914364
 H         1.556582        -0.209960        -2.181772
 H         2.240767        -1.659143        -1.391649
