19
Iteration:  3597
 C         0.016416        -0.518979         0.251323
 C         1.508491        -0.202764         0.044577
 C         2.520547        -0.321189         1.089409
 C         3.123115         0.794433         0.124531
 C         4.582802         1.201103         0.258521
 O         4.846809         0.208501        -0.899025
 C         3.354826         0.290566        -1.218789
 C         2.138454        -0.688918        -1.271519
 O         1.696611         1.322899         0.076284
 H        -0.324795         0.137507         1.163652
 H        -0.573994        -0.120162        -0.605841
 H        -0.328546        -1.501405         0.604194
 H         2.296556         0.064040         2.164633
 H         3.086633        -1.180766         1.302014
 H         4.939855         2.222666        -0.215457
 H         5.125218         0.933590         1.133052
 H         3.280754         1.086117        -1.933948
 H         1.674939        -0.571430        -2.214204
 H         2.521328        -1.742866        -1.403844
