19
Iteration:   796charge 0 multiplicity 1
 C        -0.066557        -0.506235         0.325818
 C         1.422685        -0.210288         0.028066
 C         2.622427        -0.403552         0.979056
 C         3.097850         0.753357         0.215969
 C         4.581653         1.187767         0.211315
 O         4.824990         0.300895        -0.879093
 C         3.324579         0.307932        -1.205012
 C         2.100743        -0.694910        -1.332507
 O         1.868908         1.327773         0.085100
 H        -0.407018        -0.053528         1.207020
 H        -0.662739        -0.062278        -0.590108
 H        -0.206374        -1.724191         0.493470
 H         2.225353        -0.090165         1.967792
 H         3.190759        -1.292169         1.233993
 H         4.612439         2.365356        -0.112353
 H         5.137703         1.087720         1.297676
 H         3.242528         1.354892        -1.748676
 H         1.625373        -0.610510        -2.350159
 H         2.473049        -1.759702        -1.201194
