19
Iteration:   595
 C         0.054449        -0.542379         0.204706
 C         1.470183        -0.268540        -0.021221
 C         2.522602        -0.363672         1.032792
 C         3.112717         0.870478         0.216116
 C         4.660654         1.187449         0.166199
 O         4.750641         0.199482        -0.934211
 C         3.317873         0.350532        -1.174738
 C         2.154816        -0.632112        -1.304860
 O         1.755649         1.307836         0.273480
 H        -0.268118        -0.283939         1.356784
 H        -0.523928         0.055306        -0.477627
 H        -0.035051        -1.567559        -0.023696
 H         2.104203         0.006727         1.974614
 H         3.068599        -1.320541         1.095300
 H         4.818237         2.283614        -0.113763
 H         5.392130         0.919668         1.042792
 H         3.250499         1.168993        -2.043000
 H         1.527364        -0.456391        -2.133310
 H         2.373750        -1.662357        -1.360121
