19
Iteration:  2668charge 0 multiplicity 1
 C         0.078977        -0.537416         0.274658
 C         1.450624        -0.100067         0.011621
 C         2.572944        -0.350202         1.017010
 C         3.115526         0.808058         0.176951
 C         4.593550         1.263316         0.095789
 O         4.848782         0.095372        -0.741486
 C         3.313034         0.232002        -1.249737
 C         2.096463        -0.634081        -1.360616
 O         1.730762         1.371209         0.204282
 H        -0.277568        -0.253590         1.303047
 H        -0.632197        -0.205919        -0.472834
 H         0.197960        -1.557063         0.084297
 H         2.191584         0.053001         1.996399
 H         2.846632        -1.481838         1.010789
 H         4.609789         2.271925        -0.442110
 H         5.097236         1.274935         1.090772
 H         3.558590         1.095000        -1.860771
 H         1.551139        -0.676932        -2.292270
 H         2.261806        -1.680930        -1.233179
