19
Iteration:  1585
 C         0.091698        -0.625918         0.294716
 C         1.440970        -0.085060         0.002191
 C         2.549694        -0.385802         1.009184
 C         3.178931         0.765514         0.243346
 C         4.534818         1.272711         0.112944
 O         4.867082         0.064086        -0.782039
 C         3.355442         0.242407        -1.152181
 C         2.092659        -0.473217        -1.375405
 O         1.710173         1.346229         0.103695
 H        -0.186483        -0.618601         1.456349
 H        -0.721143        -0.076331        -0.200266
 H        -0.180427        -1.669036        -0.159468
 H         2.325689         0.121582         1.972260
 H         2.978117        -1.405967         1.094943
 H         4.767416         2.261333        -0.366669
 H         5.093920         1.347115         1.096281
 H         3.324506         1.149209        -1.860457
 H         1.521627        -0.151051        -2.163584
 H         2.242896        -1.572384        -1.460139
