19
Iteration:  4862charge 0 multiplicity 1
 C        -0.059843        -0.566121         0.257008
 C         1.429420        -0.140789        -0.046062
 C         2.594725        -0.384274         0.995503
 C         3.128766         0.816347         0.200985
 C         4.573620         1.322962         0.092929
 O         4.777709         0.061114        -0.780020
 C         3.398292         0.258101        -1.125345
 C         2.129411        -0.640407        -1.325877
 O         1.793334         1.408207         0.184501
 H        -0.257172        -0.486533         1.264040
 H        -0.715229        -0.153619        -0.462445
 H         0.054784        -1.606384        -0.042650
 H         2.351263        -0.059184         2.046508
 H         3.128479        -1.307510         1.125380
 H         4.672775         2.166371        -0.618920
 H         5.329012         1.356795         0.991685
 H         3.341467         1.135779        -1.829556
 H         1.773868        -0.376171        -2.296492
 H         2.179129        -1.686283        -1.062338
