19
Iteration:  2546charge 0 multiplicity 1
 C         0.021236        -0.514443         0.239676
 C         1.507261        -0.287556         0.030121
 C         2.540054        -0.364091         1.093664
 C         3.113312         0.838071         0.217060
 C         4.616702         1.231473         0.096033
 O         4.847262         0.140693        -0.817382
 C         3.352426         0.296788        -1.207412
 C         2.075543        -0.637423        -1.371173
 O         1.731515         1.371739         0.187797
 H        -0.435698         0.242406         0.953195
 H        -0.626127        -0.318027        -0.668488
 H        -0.117329        -1.476810         0.619867
 H         2.146249        -0.142115         2.186510
 H         3.144646        -1.381019         1.256194
 H         4.947349         2.285633        -0.366152
 H         5.257262         1.099735         0.945782
 H         3.324294         1.303165        -1.864501
 H         1.496760        -0.379250        -2.257747
 H         2.215192        -1.707429        -1.730575
