19
Iteration:  4413
 C        -0.069432        -0.543907         0.342057
 C         1.428771        -0.201910        -0.007857
 C         2.600172        -0.275640         1.004133
 C         3.199008         0.825652         0.183808
 C         4.658163         1.260619         0.211653
 O         4.779694         0.068467        -0.816942
 C         3.387528         0.318919        -1.170604
 C         2.137402        -0.606357        -1.309549
 O         1.678405         1.299432         0.013848
 H        -0.253729        -0.013340         1.215278
 H        -0.611002        -0.329226        -0.576643
 H        -0.178387        -1.620225         0.613441
 H         2.470050        -0.148054         2.091693
 H         3.306272        -1.170038         0.948792
 H         4.866159         2.303185        -0.184550
 H         5.109841         1.103297         1.281066
 H         3.452185         1.094510        -1.942140
 H         1.479049        -0.274987        -2.203436
 H         2.256468        -1.681269        -1.270205
