19
Iteration:   679
 C        -0.002098        -0.538909         0.386447
 C         1.463527        -0.243465         0.010303
 C         2.695373        -0.369863         0.915578
 C         3.068880         0.883076         0.155429
 C         4.559031         1.116586         0.235860
 O         4.742649         0.107604        -0.858927
 C         3.338510         0.458673        -1.199432
 C         2.252111        -0.595776        -1.330665
 O         1.685812         1.316240         0.093242
 H        -0.205491         0.044778         1.277139
 H        -0.642062        -0.122480        -0.377773
 H        -0.344115        -1.536618         0.564774
 H         2.543799        -0.085695         1.976781
 H         3.355199        -1.246392         0.881374
 H         4.832100         2.138338         0.081370
 H         4.935647         0.776266         1.116451
 H         3.338230         1.313712        -1.798588
 H         1.495988        -0.507787        -2.160928
 H         2.656220        -1.599286        -1.226404
