19
Iteration:  4961
 C        -0.010220        -0.537922         0.245953
 C         1.433561        -0.167658         0.025651
 C         2.590854        -0.360743         1.020244
 C         3.078277         0.750992         0.188543
 C         4.642403         1.196387         0.168248
 O         4.867077         0.196920        -0.790583
 C         3.336868         0.272799        -1.118136
 C         2.055259        -0.698084        -1.359544
 O         1.775181         1.418110         0.080599
 H        -0.416238         0.083382         0.987968
 H        -0.639353        -0.441415        -0.611952
 H        -0.004694        -1.579724         0.655467
 H         2.339550         0.056211         2.058771
 H         3.177410        -1.228822         0.915030
 H         4.777090         2.142571        -0.391173
 H         5.248569         1.139932         1.168062
 H         3.323263         1.184961        -1.793876
 H         1.485550        -0.378080        -2.215730
 H         2.239837        -1.805678        -1.292020
