19
Iteration:  4661charge 0 multiplicity 1
 C        -0.035388        -0.512738         0.288444
 C         1.448762        -0.161719         0.046623
 C         2.599135        -0.385363         1.065523
 C         3.144583         0.830957         0.198023
 C         4.625065         1.234357         0.169518
 O         4.816631         0.105906        -0.878391
 C         3.400481         0.297453        -1.132701
 C         2.136877        -0.591934        -1.272319
 O         1.698144         1.309861         0.003049
 H        -0.286627        -0.150027         1.266057
 H        -0.731392        -0.084479        -0.456829
 H         0.053344        -1.581363         0.268991
 H         2.079347         0.026898         1.903319
 H         3.034077        -1.394148         1.242794
 H         4.716123         2.272698        -0.259366
 H         5.264263         1.069345         1.084142
 H         3.294413         1.244666        -1.721694
 H         1.536531        -0.404585        -2.145277
 H         2.300497        -1.704218        -1.366484
