19
Iteration:   558
 C         0.012473        -0.533007         0.376469
 C         1.460912        -0.138526         0.078537
 C         2.673310        -0.387583         0.851401
 C         3.079076         0.923917         0.193512
 C         4.603136         1.144075         0.331324
 O         4.717005         0.136870        -0.834050
 C         3.344574         0.434590        -1.269900
 C         2.200402        -0.598269        -1.346628
 O         1.697599         1.246220         0.090875
 H        -0.287275        -0.519073         1.345488
 H        -0.757345         0.021073        -0.233152
 H        -0.183020        -1.636852         0.126837
 H         2.606974        -0.144181         1.928500
 H         3.285306        -1.284575         0.703948
 H         5.061844         2.120911         0.080225
 H         5.100036         0.667868         1.075469
 H         3.320954         1.043147        -2.065636
 H         1.504902        -0.400680        -2.222225
 H         2.550369        -1.653091        -1.253451
