19
Iteration:  3545
 C        -0.013285        -0.562161         0.221045
 C         1.433028        -0.187919         0.034300
 C         2.573060        -0.340717         1.047970
 C         3.119899         0.842765         0.179197
 C         4.584857         1.231096         0.131179
 O         4.907267         0.110813        -0.788124
 C         3.346034         0.333483        -1.218198
 C         2.098986        -0.682747        -1.299178
 O         1.725787         1.352517         0.150224
 H        -0.588036        -0.131627         1.113059
 H        -0.665213        -0.044886        -0.512563
 H        -0.079548        -1.634184         0.298243
 H         2.371334         0.234536         2.067596
 H         3.277676        -1.170236         1.203881
 H         4.668172         2.264722        -0.327712
 H         5.275396         1.226902         0.937608
 H         3.412194         1.036871        -2.075426
 H         1.546214        -0.524532        -2.324866
 H         2.273263        -1.797651        -1.153999
