19
Iteration:  4367charge 0 multiplicity 1
 C        -0.071577        -0.629558         0.270175
 C         1.453376        -0.096063         0.007421
 C         2.667229        -0.324770         0.947919
 C         3.065176         0.913236         0.156588
 C         4.536097         1.309023         0.191236
 O         4.753921        -0.000658        -0.759177
 C         3.436604         0.271466        -1.225168
 C         2.135653        -0.666217        -1.289784
 O         1.783684         1.395856         0.144899
 H        -0.244990        -0.515499         1.339791
 H        -0.613327        -0.152860        -0.495914
 H        -0.073353        -1.695373         0.125195
 H         2.360657         0.152041         1.953065
 H         3.192395        -1.245038         1.189658
 H         4.777246         2.100692        -0.568348
 H         5.327167         1.303873         1.071854
 H         3.413892         1.111714        -1.897598
 H         1.632855        -0.423111        -2.195775
 H         2.280972        -1.802834        -1.219113
