19
Iteration:  2856
 C        -0.040107        -0.592159         0.323231
 C         1.443564        -0.132625         0.013769
 C         2.513468        -0.297258         0.993586
 C         3.129730         0.763346         0.120481
 C         4.625073         1.233977         0.241979
 O         4.863954         0.219182        -0.836367
 C         3.364706         0.227175        -1.186625
 C         2.058174        -0.680488        -1.307012
 O         1.845720         1.363495         0.078365
 H        -0.317213        -0.042909         1.242026
 H        -0.788624        -0.310208        -0.471739
 H        -0.130354        -1.731547         0.363069
 H         2.176307         0.257937         1.887972
 H         3.254448        -1.249222         1.167631
 H         4.658487         2.221103        -0.162823
 H         5.074461         1.088407         1.331650
 H         3.152143         0.991947        -1.928320
 H         1.386483        -0.634531        -2.186429
 H         2.380746        -1.692903        -1.339290
