19
Iteration:   141charge 0 multiplicity 1
 C         0.104183        -0.576739         0.206488
 C         1.489052        -0.192853         0.030570
 C         2.556718        -0.466004         1.055332
 C         3.155961         0.826228         0.196684
 C         4.588707         1.280622         0.109815
 O         4.796622         0.157323        -0.837532
 C         3.310611         0.260802        -1.151210
 C         2.107265        -0.596787        -1.339106
 O         1.709191         1.390425         0.174754
 H        -0.198324         0.222184         1.096320
 H        -0.505908        -0.455434        -0.625053
 H        -0.109703        -1.552579         0.695146
 H         2.313908        -0.154882         2.098746
 H         3.136503        -1.445336         0.987251
 H         4.781452         2.256436        -0.330970
 H         5.133703         1.137975         1.113348
 H         3.280838         1.045943        -1.993016
 H         1.548424        -0.137147        -2.099292
 H         2.105544        -1.623141        -1.467856
