19
Iteration:  2667
 C         0.079978        -0.543731         0.273818
 C         1.456351        -0.102812         0.006825
 C         2.564788        -0.348582         1.017365
 C         3.125387         0.809770         0.175712
 C         4.596852         1.262398         0.100017
 O         4.848308         0.095506        -0.739464
 C         3.315345         0.241172        -1.248770
 C         2.086939        -0.636812        -1.362806
 O         1.726763         1.371037         0.203528
 H        -0.270908        -0.248975         1.328359
 H        -0.649216        -0.152233        -0.467551
 H         0.225379        -1.562525         0.093085
 H         2.196094         0.052457         2.030284
 H         2.806495        -1.491003         1.033499
 H         4.582415         2.285781        -0.434135
 H         5.139762         1.281345         1.035887
 H         3.563782         1.056378        -1.869542
 H         1.553432        -0.668117        -2.309405
 H         2.274843        -1.711449        -1.234596
