19
Iteration:  4598charge 0 multiplicity 1
 C        -0.019936        -0.479031         0.273628
 C         1.467216        -0.209829         0.055846
 C         2.630180        -0.394887         1.014351
 C         3.088774         0.803180         0.200863
 C         4.634270         1.205342         0.121695
 O         4.799186         0.103356        -0.775960
 C         3.329838         0.339976        -1.204613
 C         2.189456        -0.646791        -1.330763
 O         1.707620         1.413582         0.082011
 H        -0.464452         0.147085         1.011868
 H        -0.683947        -0.625682        -0.654672
 H        -0.139411        -1.582523         0.762658
 H         2.374345        -0.164415         2.001307
 H         3.032305        -1.436537         1.128079
 H         4.823758         2.184398        -0.270927
 H         5.306341         1.198165         1.070708
 H         3.295487         1.199227        -1.903006
 H         1.415814        -0.456314        -2.134271
 H         2.423427        -1.665699        -1.309638
