19
Iteration:  3263
 C         0.030497        -0.508623         0.204894
 C         1.491578        -0.191569         0.061482
 C         2.612519        -0.322936         1.054457
 C         3.131004         0.824324         0.185743
 C         4.581139         1.226557         0.195191
 O         4.827968         0.138562        -0.835432
 C         3.359223         0.268653        -1.200129
 C         2.032442        -0.680838        -1.285757
 O         1.728309         1.340623         0.074425
 H        -0.562596         0.115872         0.969499
 H        -0.357614        -0.104124        -0.738123
 H        -0.038783        -1.521168         0.580728
 H         2.317329        -0.070956         2.106965
 H         3.280701        -1.179579         0.962779
 H         4.901101         2.064575        -0.303037
 H         5.242229         1.284289         1.168902
 H         3.110640         1.155467        -1.757471
 H         1.309751        -0.612102        -2.085723
 H         2.365602        -1.706786        -1.149354
