19
Iteration:  1292charge 0 multiplicity 1
 C         0.094340        -0.579530         0.269665
 C         1.425990        -0.125670        -0.048584
 C         2.483014        -0.423580         1.040800
 C         3.119523         0.809297         0.256345
 C         4.566210         1.166347         0.185798
 O         4.909439         0.244609        -0.909884
 C         3.351827         0.256129        -1.160261
 C         2.111097        -0.666087        -1.353470
 O         1.719984         1.414682         0.154174
 H        -0.131301        -0.034941         1.281723
 H        -0.808746        -0.372386        -0.342495
 H         0.041825        -1.551898         0.478345
 H         2.327461        -0.087804         2.079308
 H         3.116565        -1.290166         0.972534
 H         4.820543         2.238918        -0.211719
 H         5.132826         0.897771         1.124649
 H         3.187617         1.065995        -1.873947
 H         1.611195        -0.352665        -2.292122
 H         2.138824        -1.817289        -1.240285
