19
Iteration:  4784charge 0 multiplicity 1
 C         0.028838        -0.561186         0.271713
 C         1.453526        -0.094653        -0.030557
 C         2.536008        -0.377476         0.970968
 C         3.131706         0.810575         0.221224
 C         4.580774         1.222698         0.223698
 O         4.812093         0.173835        -0.866974
 C         3.369454         0.298062        -1.167103
 C         2.086133        -0.702255        -1.285577
 O         1.757752         1.377158         0.111115
 H        -0.131814         0.218373         0.993328
 H        -0.669058        -0.517318        -0.580165
 H         0.090337        -1.548595         0.823687
 H         2.188938        -0.094732         1.950053
 H         3.087221        -1.401890         0.955166
 H         4.891281         2.255793        -0.065891
 H         5.316371         0.916851         1.125691
 H         3.274534         1.118812        -1.947802
 H         1.540831        -0.715277        -2.281966
 H         2.383514        -1.710394        -1.161446
