19
Iteration:   340
 C        -0.000462        -0.629790         0.403094
 C         1.397060        -0.110405         0.030259
 C         2.550665        -0.357178         1.008996
 C         3.115589         0.835127         0.183310
 C         4.586315         1.176748         0.238824
 O         4.759281         0.145219        -0.888086
 C         3.391519         0.399639        -1.214784
 C         2.135633        -0.605646        -1.389718
 O         1.826632         1.320544         0.088566
 H        -0.352516        -0.459940         1.375656
 H        -0.764795        -0.437728        -0.449184
 H         0.207784        -1.789038         0.367123
 H         2.351829         0.051805         1.997901
 H         3.081496        -1.301820         1.106323
 H         4.890679         2.241906        -0.134875
 H         5.080426         0.916338         1.098352
 H         3.283764         1.384382        -1.945002
 H         1.555389        -0.528717        -2.245494
 H         2.503623        -1.545973        -1.329798
