19
Iteration:   281
 C        -0.018045        -0.500990         0.253393
 C         1.487386        -0.246921         0.107654
 C         2.716250        -0.392981         0.985473
 C         3.147507         0.789609         0.141837
 C         4.569212         1.208199         0.128745
 O         4.658712         0.146736        -0.788759
 C         3.303938         0.395021        -1.264389
 C         2.244073        -0.622019        -1.299306
 O         1.710806         1.325414         0.189000
 H        -0.530120         0.167130         1.097501
 H        -0.434799        -0.161737        -0.631793
 H        -0.360026        -1.517324         0.354405
 H         2.606391         0.034671         2.031717
 H         3.327143        -1.357132         0.905789
 H         4.777558         2.205855        -0.168982
 H         5.126278         0.920045         1.190047
 H         3.225345         1.149963        -2.109218
 H         1.442397        -0.381867        -2.106483
 H         2.827402        -1.693436        -1.431312
