19
Iteration:   706charge 0 multiplicity 1
 C         0.089372        -0.662999         0.341083
 C         1.420531        -0.051860        -0.038611
 C         2.534971        -0.322488         0.998766
 C         3.127764         0.842136         0.204891
 C         4.703591         1.120452         0.181482
 O         4.844158         0.170247        -0.816696
 C         3.373451         0.335840        -1.193377
 C         2.033497        -0.601923        -1.356218
 O         1.683491         1.346588         0.088379
 H        -0.133372        -0.573430         1.492954
 H        -0.900598        -0.423685        -0.148100
 H         0.284197        -1.774556         0.125175
 H         2.228617        -0.016563         2.001568
 H         3.198595        -1.222528         1.072905
 H         4.876961         2.211133        -0.151682
 H         5.240333         0.901517         1.244067
 H         3.357636         1.220800        -1.936269
 H         1.302674        -0.299967        -2.104039
 H         2.034162        -1.714273        -1.432466
