19
Iteration:   316
 C         0.082894        -0.683829         0.330002
 C         1.394395        -0.111453        -0.005363
 C         2.465126        -0.367118         0.980823
 C         3.204505         0.744900         0.278106
 C         4.655493         1.158811         0.145004
 O         4.886790         0.228889        -0.916285
 C         3.334463         0.276666        -1.131749
 C         2.058396        -0.592959        -1.285403
 O         1.706391         1.450294         0.073648
 H        -0.262293        -0.179410         1.265723
 H        -0.637058        -0.489104        -0.435960
 H         0.137775        -1.810453         0.583665
 H         2.105617        -0.108181         2.012674
 H         3.066278        -1.292380         1.008512
 H         4.768417         2.259941        -0.104208
 H         5.294280         0.863532         1.021794
 H         3.229326         1.235070        -1.829656
 H         1.528144        -0.281757        -2.190579
 H         2.266002        -1.675792        -1.419504
