19
Iteration:   763
 C         0.075197        -0.495843         0.252339
 C         1.506285        -0.147650         0.044803
 C         2.706319        -0.390348         0.944303
 C         3.077498         0.886370         0.210040
 C         4.684987         1.240093         0.162132
 O         4.762947         0.070442        -0.815533
 C         3.322309         0.338488        -1.180000
 C         2.124491        -0.617224        -1.319828
 O         1.569036         1.254043         0.195997
 H        -0.334577        -0.075624         1.112361
 H        -0.416264         0.055617        -0.673635
 H        -0.226095        -1.675286         0.126405
 H         2.426724        -0.115551         1.967008
 H         3.420063        -1.179043         0.742356
 H         4.812217         2.277985        -0.389879
 H         5.093133         1.319301         1.277585
 H         3.221563         1.145487        -2.049070
 H         1.473782        -0.585639        -2.228350
 H         2.575582        -1.649326        -1.158704
