19
Iteration:  1130
 C        -0.048595        -0.530732         0.199138
 C         1.452850        -0.116457         0.037519
 C         2.637238        -0.388475         1.004857
 C         3.131182         0.862449         0.239273
 C         4.590256         1.217830         0.199536
 O         4.778471         0.208238        -0.858178
 C         3.336722         0.290662        -1.181518
 C         2.168512        -0.699926        -1.382252
 O         1.741607         1.295617         0.231517
 H        -0.547044         0.037261         1.042203
 H        -0.559662        -0.340870        -0.826137
 H         0.067674        -1.628787         0.333536
 H         2.465945         0.000323         2.004369
 H         3.161266        -1.311275         0.957946
 H         4.870224         2.217022        -0.180579
 H         5.199718         0.907938         0.948844
 H         3.153109         1.155805        -1.942208
 H         1.705071        -0.477997        -2.289105
 H         2.271948        -1.761273        -1.242632
