19
Iteration:  1606charge 0 multiplicity 1
 C        -0.014261        -0.646841         0.283383
 C         1.379043        -0.172192         0.020394
 C         2.574296        -0.383721         0.976541
 C         3.086387         0.839700         0.201080
 C         4.704823         1.220672         0.155884
 O         4.785588         0.141723        -0.721231
 C         3.402635         0.342591        -1.219248
 C         2.078690        -0.623186        -1.364085
 O         1.809395         1.398783         0.152464
 H        -0.287639        -0.422318         1.444241
 H        -0.851199        -0.142916        -0.258273
 H        -0.241541        -1.816664         0.033645
 H         2.285862        -0.071426         1.998057
 H         3.136805        -1.327604         0.949966
 H         4.689310         2.245526        -0.454301
 H         5.373647         1.357533         1.033046
 H         3.379719         0.918452        -2.237740
 H         1.619287        -0.136344        -2.208385
 H         2.168900        -1.692820        -1.666974
