19
Iteration:  2161charge 0 multiplicity 1
 C        -0.004858        -0.522412         0.353324
 C         1.405312        -0.221639        -0.019750
 C         2.533734        -0.413765         1.064427
 C         3.112790         0.847781         0.175280
 C         4.587631         1.226150         0.206150
 O         4.840351         0.121393        -0.881796
 C         3.355723         0.309176        -1.200499
 C         2.179476        -0.614685        -1.392737
 O         1.769699         1.379134         0.133884
 H        -0.382760        -0.054847         1.246102
 H        -0.752633        -0.243198        -0.425566
 H        -0.192186        -1.685705         0.445226
 H         2.174750        -0.015678         2.056548
 H         3.305552        -1.221196         1.192362
 H         4.916773         2.299878        -0.174242
 H         5.115324         0.927771         1.064342
 H         3.344152         1.108021        -1.921740
 H         1.623970        -0.340467        -2.252093
 H         2.379186        -1.628727        -1.329885
