19
Iteration:  1560charge 0 multiplicity 1
 C         0.003380        -0.503157         0.290038
 C         1.472412        -0.232122         0.006062
 C         2.624612        -0.369253         0.991059
 C         3.080518         0.919506         0.220213
 C         4.645047         1.209697         0.209785
 O         4.733803         0.121060        -0.792361
 C         3.399433         0.353899        -1.242410
 C         2.143593        -0.634454        -1.341627
 O         1.710893         1.311605         0.121938
 H        -0.385757        -0.469017         1.424357
 H        -0.743115        -0.008837        -0.381291
 H        -0.219695        -1.672470        -0.123206
 H         2.380892        -0.156275         2.032125
 H         3.300426        -1.212843         0.875749
 H         5.164009         2.241975        -0.092833
 H         5.255032         0.893058         1.046321
 H         3.278213         1.253547        -2.022527
 H         1.381862        -0.530310        -2.198951
 H         2.371456        -1.706683        -1.256255
