19
Iteration:  1105charge 0 multiplicity 1
 C         0.007959        -0.612205         0.220886
 C         1.442799        -0.167891        -0.026956
 C         2.512337        -0.468625         1.045797
 C         3.132287         0.806406         0.257478
 C         4.588836         1.260360         0.149468
 O         4.889924         0.158215        -0.826827
 C         3.321074         0.338042        -1.164261
 C         2.106087        -0.590798        -1.292734
 O         1.758362         1.374679         0.146694
 H        -0.205511        -0.167690         1.336096
 H        -0.689634        -0.216699        -0.511736
 H         0.099175        -1.668985         0.190425
 H         2.291921        -0.099310         2.023045
 H         3.022160        -1.434152         1.054464
 H         4.605607         2.148390        -0.522062
 H         5.365359         1.265760         0.890506
 H         3.296697         1.139616        -2.026430
 H         1.582633        -0.118362        -2.163850
 H         2.253042        -1.676480        -1.486790
