19
Iteration:  3796
 C        -0.002025        -0.537800         0.285887
 C         1.466209        -0.141064         0.106151
 C         2.567184        -0.388649         1.071863
 C         3.100834         0.870948         0.098074
 C         4.557741         1.262528         0.159093
 O         4.799801         0.135719        -0.801379
 C         3.403723         0.264566        -1.257207
 C         2.143230        -0.681810        -1.335301
 O         1.790955         1.340603         0.148794
 H        -0.498120        -0.065012         1.128371
 H        -0.681253        -0.202572        -0.581314
 H         0.037694        -1.671305         0.252521
 H         2.220771         0.063699         2.027520
 H         2.825250        -1.449185         1.012523
 H         4.666274         2.281737        -0.322006
 H         5.177024         1.200712         1.051797
 H         3.304636         1.029810        -2.038745
 H         1.481038        -0.465051        -2.245006
 H         2.505656        -1.646932        -1.210981
