19
Iteration:  1504charge 0 multiplicity 1
 C        -0.040782        -0.553466         0.216482
 C         1.443642        -0.241927         0.010930
 C         2.505599        -0.432507         1.038294
 C         3.181316         0.764468         0.255095
 C         4.663466         1.263351         0.177362
 O         4.795192         0.237952        -0.894513
 C         3.324239         0.311662        -1.128867
 C         2.142377        -0.628685        -1.294597
 O         1.842958         1.362023         0.111551
 H        -0.518037         0.017487         1.067419
 H        -0.799364        -0.376487        -0.659732
 H        -0.151850        -1.728750         0.603267
 H         2.307378        -0.006385         2.003777
 H         2.919403        -1.434319         1.135321
 H         4.668772         2.323712        -0.266134
 H         5.351022         0.988059         0.898471
 H         2.923334         1.252687        -1.751480
 H         1.603286        -0.235422        -2.230271
 H         2.185795        -1.711515        -1.397848
