19
Iteration:  2688
 C        -0.072244        -0.558021         0.249022
 C         1.449365        -0.154304         0.046078
 C         2.686523        -0.355631         0.973893
 C         3.128291         0.876309         0.144529
 C         4.560565         1.237644         0.214075
 O         4.743029         0.097951        -0.799253
 C         3.378555         0.306153        -1.201225
 C         2.131374        -0.672856        -1.258190
 O         1.761023         1.367021         0.119210
 H        -0.489424         0.103213         1.114727
 H        -0.654371        -0.172202        -0.628867
 H        -0.019282        -1.615092         0.442430
 H         2.661136        -0.154169         2.103356
 H         3.268054        -1.356251         0.810976
 H         4.714494         2.279159        -0.256388
 H         5.225348         1.059422         0.994466
 H         3.474474         0.964395        -2.040477
 H         1.641671        -0.429713        -2.214900
 H         2.288904        -1.787035        -1.286930
