19
Iteration:  2550charge 0 multiplicity 1
 C         0.037464        -0.495997         0.241949
 C         1.485965        -0.276451         0.021602
 C         2.520958        -0.375447         1.123264
 C         3.081441         0.828680         0.198370
 C         4.657392         1.265821         0.075267
 O         4.866403         0.131837        -0.819356
 C         3.345649         0.309897        -1.178737
 C         2.085026        -0.603211        -1.361134
 O         1.758321         1.332255         0.168333
 H        -0.447976         0.205863         0.978747
 H        -0.599051        -0.412924        -0.613283
 H        -0.126588        -1.581979         0.539747
 H         2.018140        -0.270345         2.049347
 H         3.087311        -1.257876         1.118414
 H         4.867193         2.189039        -0.415853
 H         5.251610         1.134234         1.027938
 H         3.188714         1.221543        -1.782824
 H         1.410820        -0.349220        -2.197569
 H         2.123698        -1.662783        -1.559691
