19
Iteration:   214charge 0 multiplicity 1
 C        -0.007060        -0.642753         0.313078
 C         1.415822        -0.153380        -0.034910
 C         2.596749        -0.351318         1.130058
 C         3.200307         0.727295         0.249137
 C         4.533910         1.255301         0.220950
 O         4.839263         0.172999        -0.925714
 C         3.315937         0.324104        -1.212991
 C         2.111505        -0.581717        -1.300364
 O         1.815053         1.388056         0.015580
 H        -0.183452        -0.575541         1.476486
 H        -0.848232        -0.055995        -0.030072
 H        -0.181147        -1.626517        -0.009992
 H         2.176523         0.104230         2.040444
 H         2.939720        -1.445231         1.203337
 H         4.701320         2.274524        -0.058439
 H         5.163423         0.799882         1.141182
 H         3.307017         1.276562        -1.878055
 H         1.377748        -0.408551        -2.191415
 H         2.408026        -1.764195        -1.347582
