19
Iteration:  3056charge 0 multiplicity 1
 C        -0.000800        -0.548654         0.240352
 C         1.476353        -0.100302        -0.012186
 C         2.562672        -0.361054         1.053121
 C         3.152296         0.750294         0.250742
 C         4.655445         1.299052         0.118354
 O         4.737655         0.127066        -0.825013
 C         3.340082         0.301255        -1.117783
 C         2.167781        -0.673925        -1.387417
 O         1.773098         1.332672         0.113055
 H        -0.543590         0.045568         1.063464
 H        -0.595890        -0.257223        -0.586719
 H        -0.048806        -1.537867         0.597978
 H         2.064075         0.022588         2.016162
 H         2.881525        -1.390447         1.233934
 H         4.667535         2.247117        -0.304366
 H         5.379039         1.238589         0.928935
 H         3.222556         1.021403        -1.858815
 H         1.451488        -0.545439        -2.090606
 H         2.437577        -1.718992        -1.180941
