19
Iteration:  3697
 C         0.039711        -0.583332         0.316244
 C         1.430094        -0.149758         0.055909
 C         2.588508        -0.308403         1.005877
 C         3.058334         0.850175         0.192553
 C         4.686726         1.186979         0.224190
 O         4.839211         0.171694        -0.820892
 C         3.362713         0.281142        -1.201769
 C         2.104347        -0.638344        -1.261624
 O         1.677407         1.338384        -0.018750
 H        -0.138244        -0.357080         1.374368
 H        -0.541992        -0.158933        -0.493674
 H        -0.227791        -1.637370         0.183068
 H         2.404558         0.066604         2.070541
 H         3.125602        -1.237824         0.956631
 H         4.995088         2.210198        -0.218176
 H         5.210964         0.904260         1.117715
 H         3.329689         0.883073        -2.085184
 H         1.594460        -0.322012        -2.172493
 H         2.063846        -1.688597        -1.105713
