19
Iteration:  1109
 C         0.040909        -0.608086         0.224641
 C         1.447333        -0.172749        -0.046660
 C         2.520035        -0.445005         1.048691
 C         3.128643         0.779635         0.251312
 C         4.603731         1.265721         0.148888
 O         4.890474         0.163736        -0.847637
 C         3.336091         0.306826        -1.138316
 C         2.077296        -0.595081        -1.313627
 O         1.736964         1.398444         0.178915
 H        -0.194595        -0.140636         1.156046
 H        -0.674546        -0.183563        -0.580154
 H         0.012514        -1.743519         0.199801
 H         2.146655        -0.141849         2.050233
 H         3.088971        -1.362297         0.973844
 H         4.663102         2.186415        -0.458522
 H         5.331218         1.330109         0.945528
 H         3.242787         1.009881        -1.950393
 H         1.584235        -0.196042        -2.145983
 H         2.243719        -1.645811        -1.412121
