19
Iteration:  4964charge 0 multiplicity 1
 C        -0.012641        -0.557524         0.248533
 C         1.417737        -0.178038         0.018462
 C         2.613054        -0.388091         1.039535
 C         3.105024         0.787244         0.210890
 C         4.636242         1.203481         0.176474
 O         4.869370         0.191891        -0.788630
 C         3.322347         0.244672        -1.123668
 C         2.045451        -0.669552        -1.364528
 O         1.778348         1.421688         0.073140
 H        -0.593479         0.127024         0.956009
 H        -0.532901        -0.413849        -0.682793
 H        -0.032898        -1.496077         0.613846
 H         2.327974         0.113238         1.981084
 H         3.282026        -1.237635         0.915780
 H         4.789525         2.213455        -0.390073
 H         5.211802         1.140654         1.085865
 H         3.366648         1.070089        -1.875242
 H         1.346410        -0.396147        -2.112929
 H         2.276680        -1.762581        -1.337549
