19
Iteration:  2746
 C         0.000434        -0.600131         0.326001
 C         1.389891        -0.152150         0.003095
 C         2.485602        -0.378292         1.044768
 C         3.145608         0.815675         0.181075
 C         4.622995         1.204952         0.167760
 O         4.805272         0.166054        -0.838584
 C         3.317778         0.349302        -1.185368
 C         2.149051        -0.733293        -1.318351
 O         1.838829         1.451809         0.069586
 H        -0.379516        -0.115640         1.238111
 H        -0.609100        -0.476961        -0.544114
 H        -0.136072        -1.665552         0.528839
 H         2.225020         0.041350         2.018650
 H         2.973708        -1.472374         0.995608
 H         4.754536         2.274888        -0.130099
 H         5.229383         1.006584         1.157059
 H         3.383681         1.191913        -1.934044
 H         1.708697        -0.549847        -2.300182
 H         2.537802        -1.705298        -1.184742
