19
Iteration:  2538
 C        -0.009923        -0.525715         0.236772
 C         1.458147        -0.258784         0.027434
 C         2.623228        -0.368169         1.060108
 C         3.148264         0.828381         0.233967
 C         4.586547         1.200587         0.156927
 O         4.785641         0.145193        -0.833124
 C         3.353221         0.305420        -1.223200
 C         2.118986        -0.681176        -1.400637
 O         1.712302         1.401994         0.200622
 H        -0.282802         0.259328         1.033916
 H        -0.493925        -0.363329        -0.720839
 H        -0.227104        -1.481710         0.702510
 H         2.429899         0.218349         1.961870
 H         3.135868        -1.302498         1.217802
 H         4.754865         2.206893        -0.252031
 H         5.257145         1.020597         1.025113
 H         3.459950         1.053444        -2.071318
 H         1.535842        -0.184854        -2.172340
 H         2.447076        -1.709507        -1.525654
