19
Iteration:   418charge 0 multiplicity 1
 C         0.023655        -0.559147         0.325606
 C         1.424785        -0.120495        -0.011834
 C         2.440758        -0.411497         1.024801
 C         3.181543         0.795428         0.248244
 C         4.595005         1.272225         0.109245
 O         4.843701         0.251292        -0.924711
 C         3.338391         0.205226        -1.158777
 C         2.147716        -0.679308        -1.362837
 O         1.816005         1.339088         0.227276
 H        -0.269741        -0.486362         1.401447
 H        -0.606673         0.031781        -0.428391
 H         0.052768        -1.601099        -0.045137
 H         2.063586        -0.162793         2.000033
 H         2.852832        -1.427317         1.003468
 H         4.741125         2.370338        -0.272200
 H         5.207631         1.129767         0.972836
 H         3.103451         1.161012        -1.858381
 H         1.680176        -0.312582        -2.225855
 H         2.132718        -1.694129        -1.308049
