19
Iteration:  1650charge 0 multiplicity 1
 C         0.060285        -0.475922         0.251318
 C         1.514802        -0.239235         0.034136
 C         2.632842        -0.358853         1.016096
 C         3.119101         0.818513         0.162378
 C         4.624426         1.118792         0.244682
 O         4.661450         0.189623        -0.818743
 C         3.307640         0.401461        -1.247678
 C         2.246641        -0.652685        -1.329505
 O         1.686416         1.333106         0.137855
 H        -0.347890         0.201105         1.120651
 H        -0.627774        -0.257714        -0.642682
 H        -0.182756        -1.623875         0.483562
 H         2.391239         0.046466         2.012790
 H         3.135279        -1.341512         1.078413
 H         4.933140         2.193409        -0.080325
 H         5.162167         0.632965         1.110592
 H         3.143676         1.159408        -2.114270
 H         1.530749        -0.502365        -2.135737
 H         2.553097        -1.731934        -1.343204
