19
Iteration:  2100
 C        -0.034979        -0.595545         0.311367
 C         1.437674        -0.130619        -0.008436
 C         2.536800        -0.353044         0.979897
 C         3.128686         0.797734         0.172841
 C         4.593404         1.258248         0.158703
 O         4.785174         0.106454        -0.742365
 C         3.370477         0.325764        -1.250096
 C         2.115690        -0.635674        -1.331306
 O         1.819748         1.361770         0.176338
 H        -0.220265        -0.622028         1.378017
 H        -0.705187         0.027468        -0.354039
 H        -0.057625        -1.570110        -0.024916
 H         2.338944         0.127679         1.926313
 H         3.254696        -1.120071         1.002268
 H         4.768631         2.221360        -0.284441
 H         5.398601         1.103885         0.985856
 H         3.318074         1.035752        -2.166903
 H         1.542853        -0.415107        -2.285889
 H         2.237611        -1.800612        -1.336502
