19
Iteration:  1513
 C         0.036601        -0.516802         0.235080
 C         1.454734        -0.162918         0.004465
 C         2.530176        -0.458084         1.073672
 C         3.148167         0.822842         0.222072
 C         4.609876         1.239505         0.187240
 O         4.791985         0.233108        -0.932409
 C         3.304715         0.311440        -1.128387
 C         2.137736        -0.637062        -1.297629
 O         1.784196         1.313992         0.126562
 H        -0.335702         0.046875         1.014430
 H        -0.631583        -0.343328        -0.702700
 H        -0.079140        -1.593137         0.442342
 H         2.144743        -0.223407         2.066631
 H         3.016277        -1.450169         1.101064
 H         4.997470         2.208594        -0.154948
 H         5.167332         0.893191         1.094456
 H         3.171537         1.131456        -1.810887
 H         1.661123        -0.396570        -2.300168
 H         2.335731        -1.727705        -1.244110
