19
Iteration:  1501charge 0 multiplicity 1
 C        -0.086115        -0.577850         0.230886
 C         1.416803        -0.247483         0.013771
 C         2.516597        -0.410715         1.032976
 C         3.170785         0.724951         0.289125
 C         4.664935         1.260999         0.150028
 O         4.796144         0.239482        -0.889778
 C         3.350015         0.331698        -1.143624
 C         2.139025        -0.634106        -1.312731
 O         1.853741         1.378664         0.117129
 H        -0.436147        -0.045675         1.017229
 H        -0.743976        -0.399707        -0.704267
 H        -0.128264        -1.585520         0.564350
 H         2.300830         0.096496         1.985508
 H         2.949405        -1.427623         1.090104
 H         4.589512         2.272386        -0.189129
 H         5.524632         1.140140         0.968951
 H         3.126674         1.168609        -1.730202
 H         1.473067        -0.251947        -2.145836
 H         2.217461        -1.744663        -1.447603
