19
Iteration:  1924
 C         0.026551        -0.526638         0.286503
 C         1.435238        -0.148236         0.105809
 C         2.633148        -0.329715         0.953849
 C         3.097636         0.905785         0.173191
 C         4.610782         1.171177         0.199315
 O         4.723889         0.122391        -0.784420
 C         3.348245         0.380612        -1.239957
 C         2.258239        -0.690231        -1.317984
 O         1.679900         1.281435         0.116338
 H        -0.371639        -0.411418         1.199514
 H        -0.644121         0.139270        -0.323258
 H        -0.182570        -1.480192        -0.069876
 H         2.547227         0.021832         1.983341
 H         3.129328        -1.253357         0.916866
 H         4.898809         2.104500        -0.211850
 H         5.126435         0.857189         1.153682
 H         3.307764         1.005014        -2.184155
 H         1.572923        -0.317937        -2.151357
 H         2.561823        -1.797106        -1.375521
