19
Iteration:  4949
 C         0.019497        -0.495520         0.314797
 C         1.397055        -0.125477        -0.044452
 C         2.495723        -0.355289         1.012434
 C         3.148600         0.827409         0.219213
 C         4.581160         1.219799         0.194247
 O         4.818780         0.143441        -0.839327
 C         3.410282         0.305791        -1.219677
 C         2.183980        -0.692885        -1.302900
 O         1.749077         1.338380         0.100544
 H        -0.228151         0.013378         1.184477
 H        -0.757475        -0.358196        -0.447704
 H         0.017384        -1.625210         0.576044
 H         2.253637        -0.150968         2.097547
 H         2.905549        -1.357215         0.983310
 H         4.742830         2.252072        -0.107660
 H         5.274303         0.996897         1.113450
 H         3.196494         1.145509        -1.948551
 H         1.741360        -0.555876        -2.326143
 H         2.263664        -1.790138        -1.219282
