19
Iteration:   893
 C        -0.032716        -0.646283         0.305814
 C         1.417797        -0.150040        -0.022765
 C         2.637917        -0.351110         0.960310
 C         3.156168         0.787415         0.146598
 C         4.663589         1.275398         0.158486
 O         4.847424         0.105787        -0.750518
 C         3.366779         0.310473        -1.211320
 C         2.121007        -0.574369        -1.381299
 O         1.633201         1.393489         0.217479
 H        -0.299010        -0.415741         1.274277
 H        -0.895763        -0.224436        -0.332364
 H        -0.039231        -1.819070         0.070991
 H         2.367707         0.015488         2.017519
 H         3.237401        -1.305501         1.072515
 H         4.828505         2.147982        -0.453260
 H         5.272695         1.155587         1.158105
 H         3.423041         1.065595        -2.030261
 H         1.587499        -0.245954        -2.325958
 H         2.188423        -1.695362        -1.216149
