19
Iteration:  3277
 C         0.010960        -0.496496         0.197712
 C         1.454014        -0.217724         0.101596
 C         2.727099        -0.280920         1.053979
 C         3.092320         0.860745         0.136332
 C         4.561074         1.216623         0.172003
 O         4.790889         0.077184        -0.814501
 C         3.337657         0.305714        -1.212255
 C         2.135397        -0.641923        -1.248102
 O         1.699038         1.316589         0.107976
 H        -0.343055         0.128204         1.085699
 H        -0.521037        -0.303511        -0.796709
 H        -0.338620        -1.561531         0.216598
 H         2.469619         0.177350         2.064095
 H         3.375269        -1.283851         1.141390
 H         4.733579         2.284202        -0.209818
 H         5.021466         0.898808         1.158385
 H         3.474495         0.928123        -2.101897
 H         1.494140        -0.343816        -2.169729
 H         2.300982        -1.697193        -1.323503
