19
Iteration:  2033
 C         0.005846        -0.422578         0.262748
 C         1.421390        -0.197126         0.057010
 C         2.681603        -0.353033         0.964447
 C         3.073512         0.814281         0.125502
 C         4.540250         1.123987         0.256084
 O         4.754440         0.155882        -0.866534
 C         3.334275         0.382019        -1.291736
 C         2.264528        -0.659072        -1.246605
 O         1.686938         1.288283         0.198944
 H        -0.238291         0.288805         0.926469
 H        -0.463080        -0.224411        -0.780822
 H        -0.090447        -1.430630         0.524453
 H         2.516147        -0.023821         2.003813
 H         3.257113        -1.204148         0.908020
 H         4.856450         2.118379        -0.100998
 H         4.993893         0.841658         1.247306
 H         3.260718         1.203032        -2.127930
 H         1.610878        -0.729406        -2.171303
 H         2.699717        -1.726896        -1.102937
