19
Iteration:  4819charge 0 multiplicity 1
 C        -0.041367        -0.534431         0.286362
 C         1.402200        -0.152157         0.034870
 C         2.688486        -0.299712         1.001158
 C         3.115736         0.832272         0.189240
 C         4.605909         1.179803         0.266557
 O         4.784998         0.159001        -0.874699
 C         3.367658         0.355788        -1.230939
 C         2.164514        -0.652366        -1.327357
 O         1.714815         1.243839         0.059940
 H        -0.309883         0.319105         1.130891
 H        -0.735125        -0.261222        -0.496346
 H        -0.358933        -1.489183         0.759400
 H         2.497653         0.205111         2.037684
 H         3.223393        -1.241106         1.113560
 H         4.980273         2.201250         0.169223
 H         4.932358         0.554810         1.204823
 H         3.384275         1.151796        -2.011785
 H         1.449402        -0.512508        -2.115086
 H         2.629813        -1.644733        -1.231759
