19
Iteration:  3009charge 0 multiplicity 1
 C         0.005400        -0.515843         0.239773
 C         1.448993        -0.135269         0.085316
 C         2.685726        -0.310328         0.947120
 C         3.103941         0.850020         0.164376
 C         4.611003         1.246867         0.222217
 O         4.724781         0.141542        -0.732980
 C         3.314696         0.318844        -1.216704
 C         2.081156        -0.751391        -1.321993
 O         1.766883         1.323340         0.070591
 H        -0.358767        -0.403517         1.279701
 H        -0.606392         0.248466        -0.319073
 H         0.070163        -1.677308         0.089410
 H         2.395470        -0.023707         1.954940
 H         3.298432        -1.250012         1.002265
 H         5.126282         2.057154        -0.246598
 H         5.269094         0.975327         1.167570
 H         3.185714         0.985766        -2.038484
 H         1.560901        -0.543957        -2.297899
 H         2.503955        -1.756351        -1.260793
