19
Iteration:  1892charge 0 multiplicity 1
 C         0.002331        -0.538182         0.300106
 C         1.400798        -0.176810        -0.024992
 C         2.501634        -0.401268         1.047132
 C         3.143876         0.805386         0.284353
 C         4.584630         1.269606         0.184532
 O         4.917952         0.207507        -0.898009
 C         3.328867         0.297785        -1.116337
 C         2.088800        -0.683062        -1.319514
 O         1.813021         1.337822         0.046425
 H        -0.198393        -0.240769         1.254062
 H        -0.866238        -0.221034        -0.369613
 H        -0.134480        -1.564308         0.320313
 H         2.125581        -0.102118         2.008701
 H         2.932552        -1.353639         1.013540
 H         4.757447         2.220910        -0.186924
 H         5.333926         1.121509         1.087754
 H         3.252797         1.101398        -1.816486
 H         1.596387        -0.302421        -2.254934
 H         2.229597        -1.782154        -1.524584
