19
Iteration:  2514
 C        -0.011182        -0.501648         0.277904
 C         1.451112        -0.098917         0.040308
 C         2.650536        -0.423219         0.950773
 C         3.134258         0.916136         0.186559
 C         4.564491         1.186049         0.217028
 O         4.756085         0.121816        -0.823014
 C         3.345407         0.371965        -1.261978
 C         2.122633        -0.705044        -1.259824
 O         1.710404         1.319113         0.110630
 H        -0.451510         0.017225         1.196346
 H        -0.549598        -0.400160        -0.703543
 H         0.072910        -1.489376         0.577028
 H         2.539785        -0.188337         2.066810
 H         3.228847        -1.387032         0.687359
 H         5.196172         2.111363        -0.068960
 H         4.962909         0.774520         1.124955
 H         3.434467         1.342192        -1.932501
 H         1.641739        -0.678734        -2.212765
 H         2.693185        -1.615110        -0.975473
