19
Iteration:  3406charge 0 multiplicity 1
 C        -0.028857        -0.512740         0.213660
 C         1.493297        -0.209920        -0.008765
 C         2.524349        -0.359485         1.055697
 C         3.139638         0.849804         0.214576
 C         4.545861         1.197267         0.115395
 O         4.795235         0.143839        -0.823445
 C         3.357316         0.288510        -1.208862
 C         2.184939        -0.666411        -1.301324
 O         1.777731         1.361372         0.174858
 H        -0.556242         0.109067         0.985386
 H        -0.642009        -0.196011        -0.649398
 H        -0.034952        -1.532923         0.548036
 H         2.330369         0.115599         2.028842
 H         3.149394        -1.231009         1.289488
 H         4.648554         2.139231        -0.464522
 H         5.403015         1.312253         1.002191
 H         3.260061         1.149655        -1.946405
 H         1.503342        -0.859596        -2.202641
 H         2.502379        -1.653791        -1.005601
