19
Iteration:  3618
 C        -0.115652        -0.538840         0.302323
 C         1.404494        -0.150761         0.045836
 C         2.614630        -0.330063         1.021041
 C         3.130060         0.807070         0.197727
 C         4.629504         1.247236         0.144192
 O         4.871800         0.232706        -0.799762
 C         3.452660         0.218269        -1.206645
 C         2.092899        -0.657965        -1.290081
 O         1.747074         1.316496         0.050537
 H        -0.763977        -0.235326         1.187692
 H        -0.737219        -0.239491        -0.552272
 H         0.009643        -1.621369         0.394578
 H         2.247237        -0.179131         2.088825
 H         2.996904        -1.304546         1.204937
 H         4.886839         2.312304        -0.274847
 H         5.227242         1.044875         1.016437
 H         3.372928         1.008303        -1.959738
 H         1.476328        -0.447040        -2.107263
 H         2.213964        -1.778785        -1.412457
