19
Iteration:  2061
 C        -0.028490        -0.535651         0.240465
 C         1.410897        -0.188912         0.023927
 C         2.610785        -0.348361         1.023109
 C         3.134588         0.856461         0.280507
 C         4.691215         1.212119         0.170115
 O         4.767526         0.159855        -0.877639
 C         3.361172         0.300292        -1.176804
 C         2.143532        -0.638864        -1.274853
 O         1.733075         1.326100         0.113781
 H        -0.533338         0.041152         1.147811
 H        -0.588289        -0.207114        -0.605038
 H        -0.062438        -1.717325         0.097254
 H         2.107126        -0.227736         2.020289
 H         3.250313        -1.325649         1.122673
 H         4.787383         2.151682        -0.432771
 H         5.344956         1.069665         1.077135
 H         3.290960         1.005458        -1.980711
 H         1.603347        -0.289608        -2.138750
 H         2.235660        -1.677212        -1.348582
