19
Iteration:  4303
 C        -0.054900        -0.530281         0.309788
 C         1.406980        -0.123358         0.055492
 C         2.530301        -0.402558         1.048186
 C         3.091056         0.819772         0.152893
 C         4.594710         1.230369         0.198076
 O         4.851126         0.205759        -0.864804
 C         3.378461         0.310938        -1.209652
 C         2.243364        -0.774128        -1.344876
 O         1.811521         1.394944         0.066746
 H        -0.469631        -0.141989         1.239842
 H        -0.789491        -0.170532        -0.412970
 H        -0.223150        -1.613394         0.394291
 H         2.375335         0.207285         2.015822
 H         2.942360        -1.422764         1.112560
 H         4.649265         2.267248        -0.196249
 H         5.148898         0.894592         1.162212
 H         3.187502         1.171294        -1.891846
 H         1.368218        -0.838742        -2.026983
 H         2.267673        -1.845772        -0.982206
