19
Iteration:   322charge 0 multiplicity 1
 C         0.044608        -0.719547         0.349130
 C         1.395115        -0.082648         0.016653
 C         2.479377        -0.394472         1.044852
 C         3.195305         0.715111         0.253110
 C         4.656924         1.169353         0.184166
 O         4.837086         0.235220        -0.901977
 C         3.303279         0.298823        -1.191736
 C         2.128233        -0.585877        -1.321247
 O         1.739091         1.478538         0.032635
 H        -0.160605        -0.225339         1.337467
 H        -0.742972        -0.529588        -0.419303
 H         0.191866        -1.735132         0.558074
 H         2.187953        -0.163757         2.066468
 H         2.913915        -1.423020         1.000200
 H         4.819049         2.197136        -0.089774
 H         5.433374         0.960370         0.994061
 H         3.276184         1.098407        -1.816553
 H         1.587770        -0.169196        -2.229579
 H         2.169688        -1.747980        -1.344845
