19
Iteration:  3504
 C         0.016076        -0.546233         0.327909
 C         1.450622        -0.212010         0.009737
 C         2.609949        -0.313246         0.959416
 C         3.054987         0.866645         0.153476
 C         4.593149         1.230064         0.181905
 O         4.840889         0.079923        -0.724210
 C         3.376244         0.304953        -1.185484
 C         2.121807        -0.630722        -1.266838
 O         1.710885         1.369527         0.020029
 H        -0.144424        -0.336587         1.394792
 H        -0.662642         0.076103        -0.290195
 H        -0.180305        -1.608686         0.180438
 H         2.372560        -0.286541         2.022336
 H         3.153664        -1.279233         0.909164
 H         4.759593         2.033455        -0.509280
 H         5.172389         1.364753         1.181431
 H         3.531668         1.112257        -1.998789
 H         1.379449        -0.524445        -2.160364
 H         2.443367        -1.653145        -1.450290
