19
Iteration:  1435charge 0 multiplicity 1
 C         0.018477        -0.551400         0.334297
 C         1.419637        -0.251758         0.039165
 C         2.697277        -0.340734         0.966389
 C         3.094590         0.865597         0.109658
 C         4.551350         1.188800         0.205429
 O         4.787893         0.072460        -0.786756
 C         3.356976         0.404327        -1.180108
 C         2.186541        -0.607446        -1.372202
 O         1.663452         1.371300         0.111657
 H        -0.231433        -0.390304         1.378850
 H        -0.794642         0.080397        -0.241589
 H        -0.249152        -1.534766         0.164920
 H         2.619168         0.027134         2.031571
 H         3.348621        -1.240919         0.886805
 H         5.010399         2.052189        -0.084837
 H         4.938959         0.770803         1.198922
 H         3.398279         1.166850        -1.872809
 H         1.475987        -0.397472        -2.215321
 H         2.687661        -1.640214        -1.505465
