19
Iteration:  1446
 C        -0.025671        -0.553141         0.307160
 C         1.486652        -0.258930         0.035515
 C         2.762722        -0.358496         0.946969
 C         3.039737         0.925620         0.211332
 C         4.611767         1.185164         0.223653
 O         4.754802         0.086519        -0.772504
 C         3.265137         0.390363        -1.244244
 C         2.156881        -0.619087        -1.373770
 O         1.721241         1.363871         0.105119
 H        -0.297149        -0.145465         1.257036
 H        -0.562030         0.027572        -0.564732
 H        -0.219969        -1.572924         0.208911
 H         2.507222        -0.245202         2.029410
 H         3.482128        -1.190427         0.786015
 H         4.980820         2.119390        -0.057619
 H         5.026641         0.916674         1.274205
 H         3.319036         1.139202        -1.959488
 H         1.485746        -0.616424        -2.267208
 H         2.418521        -1.692903        -1.135453
