19
Iteration:  3844
 C         0.054675        -0.574039         0.423330
 C         1.429906        -0.199381        -0.003205
 C         2.616273        -0.319966         1.060298
 C         3.078918         0.838489         0.153497
 C         4.612415         1.197508         0.203786
 O         4.736113         0.105041        -0.746413
 C         3.358544         0.366511        -1.283188
 C         2.212788        -0.600226        -1.363223
 O         1.685768         1.314669        -0.009644
 H        -0.255689        -0.194149         1.396773
 H        -0.612901         0.060888        -0.205221
 H        -0.110641        -1.594664         0.104685
 H         2.405282         0.136662         1.983088
 H         3.313085        -1.161053         0.997608
 H         5.201180         2.092499        -0.079488
 H         5.083425         0.781151         1.203765
 H         3.314339         1.121817        -2.053183
 H         1.568764        -0.264313        -2.157049
 H         2.303883        -1.721399        -1.221412
