19
Iteration:  3753charge 0 multiplicity 1
 C        -0.016371        -0.431696         0.226476
 C         1.431236        -0.186917         0.076996
 C         2.592431        -0.410839         1.042920
 C         3.085744         0.836189         0.236778
 C         4.729874         1.297343         0.082628
 O         4.772451         0.144929        -0.826986
 C         3.290792         0.359296        -1.180724
 C         2.220553        -0.750769        -1.268615
 O         1.668737         1.271351         0.131161
 H        -0.607919         0.177639         0.862702
 H        -0.533217        -0.127740        -0.692048
 H        -0.065918        -1.524308         0.444764
 H         2.423286        -0.081213         2.033917
 H         3.290966        -1.229324         0.894790
 H         5.125630         2.243474        -0.401578
 H         5.313130         1.140868         1.051409
 H         3.224715         1.037350        -2.009184
 H         1.709084        -0.596507        -2.292623
 H         2.373187        -1.772566        -1.178540
