19
Iteration:  1989charge 0 multiplicity 1
 C        -0.038871        -0.580877         0.331098
 C         1.423623        -0.138151         0.000487
 C         2.519730        -0.405965         1.029268
 C         3.157317         0.768412         0.282948
 C         4.592103         1.230648         0.147885
 O         4.909292         0.161102        -0.852348
 C         3.379680         0.304809        -1.157181
 C         2.098166        -0.566382        -1.333971
 O         1.761821         1.321787         0.055476
 H        -0.393492        -0.144079         1.187325
 H        -0.794463        -0.347391        -0.502783
 H        -0.151188        -1.639883         0.429625
 H         2.214551         0.061386         1.977068
 H         3.037320        -1.304332         1.091234
 H         4.539725         2.282614        -0.279462
 H         5.331220         1.269719         0.942251
 H         3.505079         1.179737        -1.916504
 H         1.496996        -0.240106        -2.238593
 H         2.230621        -1.714352        -1.374427
