19
Iteration:  1769
 C         0.040906        -0.614112         0.352561
 C         1.430065        -0.176129         0.018262
 C         2.603404        -0.310375         0.966685
 C         3.102866         0.847964         0.175747
 C         4.552757         1.167772         0.228186
 O         4.798514         0.134649        -0.816540
 C         3.374601         0.279681        -1.147271
 C         2.142999        -0.585334        -1.374499
 O         1.775138         1.384215         0.065361
 H        -0.241798        -0.468821         1.413038
 H        -0.624092         0.021512        -0.156899
 H        -0.252182        -1.653790         0.019371
 H         2.300471        -0.003673         1.966646
 H         3.012145        -1.315746         1.085023
 H         4.652566         2.273713        -0.075483
 H         5.128140         1.018025         1.107906
 H         3.394670         1.157868        -1.893829
 H         1.592496        -0.410878        -2.445864
 H         2.220519        -1.749860        -1.465910
