19
Iteration:  4425charge 0 multiplicity 1
 C        -0.039851        -0.487910         0.343540
 C         1.483207        -0.209798         0.060046
 C         2.660866        -0.336296         1.017740
 C         3.062722         0.904557         0.185086
 C         4.566275         1.209824         0.245183
 O         4.806867         0.071920        -0.845452
 C         3.356743         0.302257        -1.198446
 C         2.250735        -0.650039        -1.344150
 O         1.655439         1.329101         0.035453
 H        -0.328382         0.198170         1.047271
 H        -0.793671        -0.208925        -0.402146
 H        -0.271097        -1.518432         0.694908
 H         2.384350         0.173879         1.924289
 H         3.159648        -1.359458         1.029873
 H         4.946218         2.264623        -0.035855
 H         5.238368         0.693240         0.973781
 H         3.282595         1.069804        -1.993130
 H         1.562097        -0.426757        -2.285540
 H         2.660890        -1.614438        -1.530223
