19
Iteration:  1719charge 0 multiplicity 1
 C        -0.040786        -0.525086         0.186052
 C         1.430153        -0.251080        -0.012577
 C         2.699069        -0.349453         1.004955
 C         3.109927         0.823301         0.202560
 C         4.553611         1.241190         0.177966
 O         4.767217         0.115484        -0.821100
 C         3.363344         0.313321        -1.211271
 C         2.162501        -0.665538        -1.282770
 O         1.748111         1.387402         0.211458
 H        -0.252291        -0.080880         1.133562
 H        -0.746012         0.069673        -0.607395
 H        -0.279125        -1.569941         0.156784
 H         2.351339        -0.065573         2.022235
 H         3.419590        -1.210260         1.069339
 H         4.656055         2.170435        -0.314120
 H         5.252854         1.099805         1.131535
 H         3.331772         1.134650        -1.939405
 H         1.654266        -0.472820        -2.141063
 H         2.360177        -1.681298        -1.360071
