19
Iteration:  1762
 C         0.021893        -0.580277         0.341736
 C         1.494716        -0.168693        -0.030260
 C         2.620732        -0.352592         0.979658
 C         3.136929         0.789923         0.161896
 C         4.581505         1.203863         0.250579
 O         4.769744         0.123445        -0.777717
 C         3.320831         0.348780        -1.224715
 C         2.126330        -0.588198        -1.333654
 O         1.715400         1.342423         0.053602
 H        -0.127029        -0.445163         1.398715
 H        -0.667333         0.178510        -0.261226
 H        -0.182277        -1.582084         0.022982
 H         2.415261         0.098852         1.955906
 H         3.193437        -1.288348         1.029699
 H         4.716794         2.164424        -0.163273
 H         5.205980         0.962221         1.204957
 H         3.450741         1.138323        -1.876042
 H         1.588101        -0.424537        -2.142274
 H         2.334794        -1.609057        -1.158119
