19
Iteration:   805
 C        -0.006953        -0.510982         0.340812
 C         1.398882        -0.159724         0.003776
 C         2.554552        -0.434498         1.007302
 C         3.190678         0.712629         0.251050
 C         4.545285         1.237980         0.254750
 O         4.875429         0.298069        -0.913586
 C         3.333893         0.353722        -1.158409
 C         2.049326        -0.733177        -1.339175
 O         1.844940         1.360428         0.039346
 H        -0.432574        -0.125399         1.212726
 H        -0.718920        -0.303494        -0.546542
 H         0.010715        -1.667848         0.353084
 H         2.160899        -0.107251         1.988982
 H         3.085368        -1.428244         0.994209
 H         4.655226         2.292310        -0.113057
 H         5.348410         0.970317         1.090184
 H         3.116337         1.248202        -1.774431
 H         1.482865        -0.708210        -2.287057
 H         2.313697        -1.808338        -1.084149
