19
Iteration:  1882charge 0 multiplicity 1
 C        -0.043154        -0.540408         0.331562
 C         1.425245        -0.141468         0.017202
 C         2.495270        -0.419361         1.004958
 C         3.133153         0.731628         0.239989
 C         4.630174         1.254013         0.147448
 O         4.833395         0.257348        -0.850473
 C         3.404040         0.258025        -1.136445
 C         2.128769        -0.656355        -1.313924
 O         1.788991         1.353782         0.047400
 H        -0.415153        -0.130085         1.223841
 H        -0.604796        -0.155023        -0.588447
 H         0.082764        -1.551625         0.356889
 H         2.172977        -0.252014         2.019508
 H         2.941063        -1.369708         0.937957
 H         4.565114         2.232811        -0.182266
 H         5.460974         1.079874         0.994090
 H         3.235587         1.086003        -1.728055
 H         1.670489        -0.300323        -2.222662
 H         2.183335        -1.765780        -1.280592
