19
Iteration:  2985charge 0 multiplicity 1
 C         0.056135        -0.487910         0.369399
 C         1.462909        -0.216408        -0.014505
 C         2.585605        -0.332110         0.957505
 C         3.063799         0.849559         0.145422
 C         4.524703         1.198284         0.228936
 O         4.769082         0.042542        -0.794487
 C         3.395531         0.351147        -1.252148
 C         2.241571        -0.643788        -1.296789
 O         1.645242         1.375723         0.098031
 H        -0.137020        -0.356317         1.447195
 H        -0.461714         0.376249        -0.124794
 H        -0.119923        -1.612895         0.145663
 H         2.382860        -0.053687         1.977051
 H         3.245697        -1.205895         0.970558
 H         4.916090         2.108394        -0.323735
 H         5.143103         1.063055         1.164779
 H         3.270853         1.017185        -2.151453
 H         1.943575        -0.506268        -2.394540
 H         2.543577        -1.667153        -1.050013
