19
Iteration:  1735charge 0 multiplicity 1
 C        -0.051198        -0.463471         0.261589
 C         1.502780        -0.223247         0.067214
 C         2.683843        -0.370146         0.961840
 C         3.061026         0.960490         0.146893
 C         4.661825         1.194438         0.174343
 O         4.744794         0.104687        -0.771331
 C         3.325736         0.335423        -1.185223
 C         2.237207        -0.676587        -1.362842
 O         1.621423         1.285092         0.183977
 H        -0.444841        -0.186402         1.274218
 H        -0.395360         0.150494        -0.462060
 H        -0.334263        -1.524829        -0.003483
 H         2.546942        -0.107565         2.015815
 H         3.224588        -1.296305         0.733353
 H         4.970958         2.209359        -0.283301
 H         5.121290         0.947886         1.069062
 H         3.521310         1.123456        -2.003486
 H         1.617179        -0.399988        -2.379807
 H         2.578949        -1.755588        -1.149547
