19
Iteration:  3911charge 0 multiplicity 1
 C         0.019077        -0.556874         0.256267
 C         1.435553        -0.165485         0.027227
 C         2.525199        -0.369423         1.109576
 C         3.137725         0.743608         0.200457
 C         4.572725         1.305329         0.115408
 O         4.850231         0.112077        -0.856342
 C         3.338316         0.311762        -1.223505
 C         2.138296        -0.629745        -1.334264
 O         1.794289         1.341979         0.145748
 H        -0.425020        -0.044344         1.145740
 H        -0.591907        -0.230584        -0.581004
 H        -0.108221        -1.620539         0.245733
 H         1.962528        -0.022542         2.000615
 H         3.042683        -1.252320         1.211625
 H         4.448751         2.302837        -0.419849
 H         5.346574         1.326154         0.928700
 H         3.258472         1.278510        -1.611197
 H         1.643557        -0.521344        -2.217368
 H         2.442338        -1.672742        -0.976898
