19
Iteration:  4772charge 0 multiplicity 1
 C         0.024011        -0.517131         0.295426
 C         1.406190        -0.116051        -0.032585
 C         2.524822        -0.348429         1.032544
 C         3.148768         0.775687         0.215604
 C         4.614321         1.227678         0.161249
 O         4.803651         0.146181        -0.814996
 C         3.279697         0.300366        -1.191029
 C         2.210053        -0.632834        -1.327157
 O         1.807635         1.324103         0.110589
 H        -0.518662        -0.083522         1.058547
 H        -0.718482        -0.542474        -0.549697
 H         0.044285        -1.615818         0.593556
 H         2.247595        -0.207118         2.036574
 H         3.067981        -1.401721         0.923775
 H         4.624589         2.176187        -0.457628
 H         5.188641         1.233764         1.227402
 H         3.145660         1.182446        -1.894553
 H         1.653314        -0.415742        -2.308274
 H         2.324144        -1.637668        -1.036221
