19
Iteration:  2416charge 0 multiplicity 1
 C        -0.020145        -0.468452         0.284404
 C         1.475692        -0.124120         0.093331
 C         2.674571        -0.364709         0.971186
 C         3.089496         0.822705         0.158406
 C         4.563130         1.208277         0.168908
 O         4.721252         0.127486        -0.787878
 C         3.331689         0.333293        -1.295820
 C         2.248960        -0.744122        -1.358248
 O         1.709616         1.334276         0.212897
 H        -0.424270        -0.133443         1.377713
 H        -0.490523         0.166774        -0.613265
 H        -0.307367        -1.468931        -0.055497
 H         2.590861        -0.038165         2.045812
 H         3.209839        -1.373689         0.884966
 H         4.661006         2.271770        -0.248621
 H         5.125779         0.985229         1.045561
 H         3.484513         1.174284        -2.068756
 H         1.551823        -0.689649        -2.193465
 H         2.667918        -1.755810        -1.063819
