19
Iteration:  3734
 C        -0.036325        -0.551273         0.271135
 C         1.431729        -0.169412        -0.011512
 C         2.556820        -0.335799         1.044038
 C         3.125956         0.821967         0.200170
 C         4.534377         1.195769         0.163455
 O         4.824560         0.147653        -0.891700
 C         3.372912         0.295207        -1.208771
 C         2.249662        -0.640199        -1.260715
 O         1.741769         1.371944         0.134927
 H        -0.377369         0.019741         1.136278
 H        -0.745356        -0.075887        -0.449860
 H        -0.143080        -1.625542         0.527166
 H         2.267496        -0.023516         1.998240
 H         2.878208        -1.421783         1.209690
 H         4.611009         2.167393        -0.305331
 H         5.450731         1.129006         0.899580
 H         3.301107         1.176764        -1.867336
 H         1.630280        -0.870651        -2.193946
 H         2.574728        -1.699751        -1.051087
