19
Iteration:  3415
 C        -0.021913        -0.528323         0.216672
 C         1.411745        -0.150768         0.063951
 C         2.553019        -0.352145         1.082700
 C         3.075217         0.785961         0.201429
 C         4.592883         1.210510         0.092803
 O         4.874054         0.154162        -0.891756
 C         3.405122         0.232710        -1.169244
 C         2.212905        -0.632414        -1.283425
 O         1.718043         1.391990         0.166562
 H        -0.347395         0.092824         1.084977
 H        -0.525697        -0.449575        -0.731851
 H        -0.191779        -1.554214         0.422738
 H         2.071614         0.029445         2.068806
 H         3.022463        -1.313714         1.216179
 H         4.639336         2.122055        -0.512937
 H         5.124032         1.218087         1.136079
 H         3.330113         1.033834        -2.001530
 H         1.589743        -0.485089        -2.244871
 H         2.399615        -1.734912        -1.119863
