19
Iteration:  4767
 C        -0.015443        -0.506772         0.306246
 C         1.384072        -0.128562         0.000887
 C         2.554806        -0.388536         1.022968
 C         3.102380         0.750552         0.247506
 C         4.622196         1.243937         0.109511
 O         4.793462         0.123751        -0.796428
 C         3.333869         0.332602        -1.188257
 C         2.223380        -0.633674        -1.368589
 O         1.793601         1.346913         0.107408
 H        -0.613690        -0.143365         1.237987
 H        -0.540352        -0.494496        -0.661597
 H         0.091200        -1.575405         0.404242
 H         2.402306        -0.110578         2.130903
 H         3.001839        -1.344137         1.175830
 H         4.613881         2.211824        -0.413864
 H         5.124627         1.302486         0.986725
 H         3.309117         1.142951        -1.886593
 H         1.647375        -0.337727        -2.204673
 H         2.438292        -1.734037        -1.136347
