19
Iteration:   406
 C         0.027085        -0.526018         0.258243
 C         1.440478        -0.175516         0.052586
 C         2.568343        -0.450508         1.062061
 C         3.074634         0.723006         0.217591
 C         4.545385         1.288285         0.120732
 O         4.843671         0.178289        -0.858447
 C         3.417811         0.318875        -1.238583
 C         2.083710        -0.649810        -1.357850
 O         1.809450         1.387517         0.228198
 H        -0.279276        -0.449941         1.269533
 H        -0.793353         0.061045        -0.284848
 H        -0.174353        -1.618358         0.001516
 H         2.248876        -0.131668         2.050755
 H         3.117648        -1.387011         1.048984
 H         4.501843         2.324557        -0.469798
 H         5.243869         1.268014         0.882982
 H         3.397399         1.157003        -2.099268
 H         1.444358        -0.483605        -2.168781
 H         2.288747        -1.649802        -1.346736
