19
Iteration:   280charge 0 multiplicity 1
 C        -0.017511        -0.494729         0.258497
 C         1.496021        -0.256075         0.108411
 C         2.721954        -0.389585         0.971928
 C         3.138546         0.792534         0.142781
 C         4.555408         1.205181         0.127613
 O         4.656959         0.141202        -0.786384
 C         3.301005         0.405223        -1.260107
 C         2.246010        -0.624314        -1.294651
 O         1.715703         1.325070         0.189388
 H        -0.521406         0.159135         1.093062
 H        -0.395493        -0.140884        -0.670372
 H        -0.356311        -1.480801         0.332325
 H         2.624322         0.023651         2.009875
 H         3.309440        -1.366152         0.884162
 H         4.755780         2.199628        -0.182130
 H         5.125103         0.942312         1.188942
 H         3.248768         1.127383        -2.061118
 H         1.423977        -0.401124        -2.104781
 H         2.849426        -1.702800        -1.414837
