19
Iteration:   927charge 0 multiplicity 1
 C         0.096026        -0.533755         0.342654
 C         1.445610        -0.155152        -0.044581
 C         2.569386        -0.414399         1.065940
 C         3.126896         0.730570         0.255985
 C         4.557702         1.187978         0.248540
 O         4.795195         0.205688        -0.898538
 C         3.362093         0.297085        -1.146859
 C         2.176518        -0.610262        -1.344622
 O         1.688440         1.390571        -0.002482
 H        -0.109436        -0.381511         1.395625
 H        -0.656163        -0.098702        -0.356917
 H         0.048668        -1.712186         0.194323
 H         2.298827        -0.106656         2.107860
 H         3.153691        -1.362863         1.004158
 H         4.726311         2.212822        -0.061615
 H         5.153940         1.094960         1.207383
 H         3.264572         1.239794        -1.755613
 H         1.540120        -0.247890        -2.228207
 H         2.158975        -1.718116        -1.449951
