19
Iteration:  3981
 C         0.009704        -0.539100         0.321022
 C         1.458197        -0.170776         0.049187
 C         2.580051        -0.327354         1.002886
 C         3.116026         0.871100         0.213359
 C         4.581919         1.239834         0.193367
 O         4.730877         0.165696        -0.844324
 C         3.401282         0.257069        -1.209382
 C         2.216914        -0.713127        -1.402784
 O         1.737321         1.339670         0.143290
 H        -0.330420        -0.099835         1.223823
 H        -0.718056        -0.187293        -0.426508
 H        -0.107359        -1.637285         0.287634
 H         2.151805         0.143351         1.926400
 H         3.070055        -1.373363         1.085057
 H         4.933102         2.142984        -0.334814
 H         5.002837         1.099484         1.158792
 H         3.327940         1.086827        -2.002868
 H         1.591596        -0.522548        -2.356720
 H         2.547194        -1.667176        -1.182949
