19
Iteration:  1970
 C         0.051659        -0.558963         0.258741
 C         1.459961        -0.152167         0.065715
 C         2.523480        -0.374916         1.111333
 C         3.114863         0.812309         0.109649
 C         4.606808         1.298935         0.139426
 O         4.786474         0.112647        -0.793883
 C         3.394853         0.260725        -1.228510
 C         2.143664        -0.577211        -1.357550
 O         1.741507         1.332459         0.146006
 H        -0.388116        -0.374689         1.234701
 H        -0.779244        -0.213227        -0.386001
 H         0.062757        -1.593415         0.136057
 H         2.215844        -0.160078         2.132375
 H         2.931047        -1.391557         1.100610
 H         4.846492         2.117746        -0.425876
 H         5.187610         1.117612         1.141291
 H         3.314891         1.148468        -1.849901
 H         1.643832        -0.136867        -2.219049
 H         2.304540        -1.657483        -1.509690
