19
Iteration:  4704
 C        -0.004043        -0.525877         0.329624
 C         1.400801        -0.177443        -0.026119
 C         2.612126        -0.368932         0.990166
 C         3.098219         0.824505         0.163107
 C         4.537785         1.248683         0.229816
 O         4.787474         0.084966        -0.829303
 C         3.378823         0.349769        -1.250172
 C         2.192111        -0.668672        -1.230185
 O         1.752781         1.386613         0.089971
 H        -0.268087        -0.558185         1.369135
 H        -0.695631         0.232808        -0.123220
 H        -0.198917        -1.476326        -0.128106
 H         2.509641         0.110064         2.014673
 H         3.299967        -1.275308         0.879142
 H         5.002723         2.233582        -0.225189
 H         4.887165         0.899667         1.271543
 H         3.401029         0.958057        -2.174892
 H         1.611870        -0.576743        -2.169555
 H         2.541959        -1.793400        -1.187485
