19
Iteration:  2037charge 0 multiplicity 1
 C         0.026221        -0.447520         0.233269
 C         1.399926        -0.205754         0.061838
 C         2.661903        -0.337849         0.979240
 C         3.061417         0.780672         0.151919
 C         4.588810         1.170501         0.217778
 O         4.766611         0.146948        -0.848391
 C         3.302996         0.402907        -1.284404
 C         2.240831        -0.683383        -1.273513
 O         1.693236         1.297396         0.193948
 H        -0.322541         0.409297         0.982612
 H        -0.569999        -0.223410        -0.677633
 H        -0.251389        -1.500236         0.462366
 H         2.763709         0.077494         2.016520
 H         3.359790        -1.259125         0.946487
 H         4.994159         2.121804        -0.079384
 H         4.948805         0.735559         1.280300
 H         3.348095         1.264793        -2.025645
 H         1.625887        -0.735948        -2.165045
 H         2.681725        -1.674399        -1.130783
