19
Iteration:   299
 C        -0.008357        -0.564322         0.284130
 C         1.440902        -0.156925         0.018018
 C         2.618540        -0.337881         1.048341
 C         3.090651         0.875300         0.213807
 C         4.667917         1.195317         0.203668
 O         4.843102         0.167495        -0.933148
 C         3.358548         0.354877        -1.185257
 C         2.082619        -0.629876        -1.364497
 O         1.693490         1.266997         0.182191
 H        -0.397243        -0.089410         1.153978
 H        -0.642066        -0.424542        -0.677263
 H         0.061476        -1.624073         0.490362
 H         2.298592        -0.035152         2.022559
 H         3.111456        -1.309575         1.078781
 H         4.998327         2.159377        -0.226764
 H         5.288536         1.012741         1.071297
 H         3.347138         1.132337        -1.894613
 H         1.484358        -0.410714        -2.261884
 H         2.182244        -1.716988        -1.188567
