19
Iteration:  2043charge 0 multiplicity 1
 C        -0.019951        -0.472697         0.221943
 C         1.453697        -0.203329         0.059408
 C         2.659265        -0.365503         1.025830
 C         3.090015         0.815168         0.158297
 C         4.635892         1.194022         0.195318
 O         4.772431         0.145502        -0.830133
 C         3.281048         0.401936        -1.240376
 C         2.189170        -0.703101        -1.325712
 O         1.699686         1.310122         0.175824
 H        -0.400488         0.135112         0.950189
 H        -0.659164        -0.189563        -0.656467
 H        -0.372060        -1.454983         0.494366
 H         2.757951         0.100706         1.999479
 H         3.259613        -1.211473         0.967134
 H         5.116422         2.179903        -0.029358
 H         5.018632         0.789447         1.083221
 H         3.343264         1.278532        -1.924652
 H         1.559613        -0.725004        -2.253309
 H         2.675876        -1.710055        -1.125201
