19
Iteration:  3260
 C         0.025540        -0.490330         0.238306
 C         1.458911        -0.169439         0.015248
 C         2.600740        -0.353985         1.073160
 C         3.129750         0.823599         0.210501
 C         4.608018         1.237131         0.193852
 O         4.831884         0.150587        -0.829417
 C         3.340670         0.280646        -1.192360
 C         2.058882        -0.697606        -1.287997
 O         1.744351         1.340846         0.069289
 H        -0.488853         0.059915         0.949675
 H        -0.353056        -0.282257        -0.739912
 H        -0.028563        -1.547270         0.492118
 H         2.367178        -0.032610         2.048823
 H         3.122636        -1.215360         0.924614
 H         4.896991         2.146375        -0.337094
 H         5.242570         1.219298         1.032190
 H         3.029098         1.123490        -1.854450
 H         1.362980        -0.595585        -2.059071
 H         2.289883        -1.817096        -1.130709
