19
Iteration:  1532charge 0 multiplicity 1
 C         0.024748        -0.459317         0.242411
 C         1.468363        -0.168238         0.038257
 C         2.632808        -0.345442         0.971411
 C         3.106112         0.805651         0.217981
 C         4.583636         1.110346         0.247345
 O         4.797496         0.192682        -0.869607
 C         3.348327         0.383053        -1.295910
 C         2.222779        -0.695984        -1.315633
 O         1.623353         1.329854         0.199598
 H        -0.421564        -0.036440         1.107652
 H        -0.624783        -0.152052        -0.542258
 H        -0.090679        -1.453182         0.319332
 H         2.563137        -0.049190         2.038406
 H         3.283542        -1.244141         0.925424
 H         4.638827         2.106932        -0.072588
 H         5.323236         0.691836         1.070914
 H         3.142907         1.177612        -1.941141
 H         1.598913        -0.736848        -2.178013
 H         2.536492        -1.739960        -1.105999
