19
Iteration:  4038charge 0 multiplicity 1
 C        -0.003913        -0.579286         0.234503
 C         1.470524        -0.166726         0.057935
 C         2.693573        -0.285576         0.937908
 C         3.107848         0.890652         0.146901
 C         4.593626         1.272954         0.198385
 O         4.740701         0.091284        -0.721691
 C         3.353405         0.250931        -1.273252
 C         2.131258        -0.694210        -1.332860
 O         1.698895         1.377366         0.163711
 H        -0.225681        -0.329238         1.282166
 H        -0.779420        -0.137412        -0.441173
 H        -0.065636        -1.667269         0.291950
 H         2.432437        -0.109453         1.944806
 H         3.499419        -1.130385         0.925726
 H         5.023843         2.146430        -0.232840
 H         5.024410         1.175449         1.214043
 H         3.465914         1.109386        -1.955855
 H         1.438663        -0.562495        -2.202852
 H         2.320533        -1.774218        -1.357860
