19
Iteration:  1886
 C        -0.042379        -0.532787         0.309348
 C         1.430860        -0.162790         0.003805
 C         2.491730        -0.397745         1.013187
 C         3.131456         0.768637         0.255024
 C         4.611158         1.252756         0.173411
 O         4.878738         0.236337        -0.871372
 C         3.360860         0.271224        -1.120053
 C         2.101624        -0.680637        -1.302716
 O         1.807787         1.346236         0.041195
 H        -0.340167        -0.144367         1.386933
 H        -0.660098        -0.162856        -0.502672
 H         0.086443        -1.697132         0.364697
 H         2.093715        -0.230476         2.047978
 H         2.902660        -1.465790         0.938966
 H         4.664757         2.368996        -0.177812
 H         5.403418         1.107218         0.880595
 H         3.265243         1.203605        -1.752946
 H         1.752654        -0.302239        -2.251353
 H         2.156480        -1.737822        -1.465020
