19
Iteration:  2890charge 0 multiplicity 1
 C         0.011830        -0.491754         0.225216
 C         1.417433        -0.173987         0.062157
 C         2.591733        -0.339785         1.038153
 C         3.105470         0.867157         0.179415
 C         4.652333         1.192754         0.137620
 O         4.741701         0.090026        -0.871107
 C         3.344318         0.355539        -1.172044
 C         2.249983        -0.644824        -1.221087
 O         1.639798         1.268767         0.087717
 H        -0.284560         0.250929         0.944382
 H        -0.327436        -0.246029        -0.804900
 H        -0.090045        -1.498582         0.717736
 H         2.256492        -0.104688         2.125657
 H         3.284790        -1.331443         0.966353
 H         4.903402         2.164999        -0.319059
 H         5.278817         1.119779         1.153839
 H         3.392334         1.227618        -1.876017
 H         1.668140        -0.376162        -2.115715
 H         2.655652        -1.651763        -1.081571
