19
Iteration:  2303charge 0 multiplicity 1
 C         0.011078        -0.518781         0.310615
 C         1.450350        -0.150639         0.044364
 C         2.635798        -0.381936         1.019788
 C         3.155254         0.831576         0.168087
 C         4.696354         1.195235         0.111177
 O         4.831982         0.081641        -0.724351
 C         3.344209         0.380331        -1.208455
 C         2.025701        -0.564314        -1.337312
 O         1.637882         1.280241         0.075854
 H        -0.424572        -0.364907         1.229902
 H        -0.549646        -0.004247        -0.465792
 H        -0.030199        -1.664033         0.111092
 H         2.448674        -0.020341         2.074301
 H         3.324721        -1.281689         1.001688
 H         4.807537         2.160890        -0.387075
 H         5.201455         1.213889         1.086916
 H         3.473859         1.109644        -2.088218
 H         1.308708        -0.468756        -2.085521
 H         2.422066        -1.489080        -1.225647
