19
Iteration:  3211charge 0 multiplicity 1
 C         0.027680        -0.426350         0.289936
 C         1.461403        -0.201621         0.040272
 C         2.570765        -0.392231         1.037956
 C         3.152411         0.824782         0.170714
 C         4.592944         1.209647         0.199638
 O         4.822208         0.184866        -0.789144
 C         3.304115         0.324147        -1.214471
 C         2.133613        -0.750712        -1.316260
 O         1.713130         1.325513         0.036131
 H        -0.082967        -0.012283         1.359189
 H        -0.664690         0.098156        -0.443270
 H        -0.168547        -1.536274         0.352482
 H         2.135501         0.108071         1.954337
 H         3.221098        -1.360405         1.062699
 H         4.813268         2.307559        -0.129052
 H         5.194737         0.987398         1.164467
 H         3.238966         1.062663        -2.038123
 H         1.540651        -0.689535        -2.305911
 H         2.618714        -1.702469        -1.252067
