19
Iteration:  3540charge 0 multiplicity 1
 C        -0.000420        -0.551959         0.210160
 C         1.393416        -0.151628         0.036199
 C         2.614899        -0.294546         1.103046
 C         3.140287         0.828513         0.145827
 C         4.565609         1.215437         0.143644
 O         4.893365         0.150786        -0.765046
 C         3.339338         0.266492        -1.220887
 C         2.053452        -0.670505        -1.323499
 O         1.754377         1.303016         0.142969
 H        -0.408495        -0.172484         1.138380
 H        -0.707583        -0.133374        -0.514707
 H        -0.021070        -1.682341         0.198281
 H         2.310848         0.209067         1.961043
 H         3.235101        -1.203551         1.172238
 H         4.728119         2.180387        -0.457097
 H         5.278941         1.296943         1.031069
 H         3.297875         1.022774        -2.000941
 H         1.626214        -0.290518        -2.183165
 H         2.347320        -1.711138        -1.348714
