19
Iteration:  4945charge 0 multiplicity 1
 C         0.023766        -0.497273         0.341036
 C         1.392962        -0.108863        -0.070609
 C         2.485110        -0.385788         1.020195
 C         3.164491         0.849782         0.234212
 C         4.574048         1.228374         0.215627
 O         4.800925         0.135460        -0.857302
 C         3.406354         0.296404        -1.231810
 C         2.229765        -0.671946        -1.298098
 O         1.738498         1.323133         0.098043
 H        -0.329043         0.047886         1.300720
 H        -0.753423        -0.239210        -0.453592
 H         0.027638        -1.618654         0.550171
 H         2.152625        -0.052354         1.993299
 H         2.962507        -1.430056         0.960356
 H         4.767237         2.257576        -0.087195
 H         5.187913         0.969822         1.032191
 H         3.303939         1.004741        -2.047640
 H         1.657621        -0.587128        -2.295128
 H         2.404910        -1.733769        -1.162255
