19
Iteration:  1465charge 0 multiplicity 1
 C         0.087010        -0.515481         0.208732
 C         1.436618        -0.123626         0.035689
 C         2.616277        -0.394186         0.928405
 C         3.137897         0.804815         0.173440
 C         4.624098         1.249472         0.178145
 O         4.725108         0.157529        -0.816748
 C         3.360410         0.337118        -1.183908
 C         2.149823        -0.661213        -1.290224
 O         1.678733         1.304255         0.206375
 H        -0.385303         0.064455         1.093005
 H        -0.598120        -0.318424        -0.560489
 H         0.023809        -1.564132         0.310572
 H         2.515427        -0.114741         2.028156
 H         3.100536        -1.399172         0.985357
 H         4.857419         2.247936        -0.254120
 H         5.277623         0.919858         1.145240
 H         3.324634         1.019236        -2.019145
 H         1.460522        -0.359767        -2.084999
 H         2.341260        -1.762713        -1.306172
