19
Iteration:  2515
 C        -0.017804        -0.502764         0.274474
 C         1.455678        -0.100289         0.039349
 C         2.652790        -0.415365         0.951323
 C         3.133827         0.913853         0.179042
 C         4.557875         1.188043         0.220846
 O         4.751306         0.119963        -0.826594
 C         3.346157         0.368373        -1.265502
 C         2.128637        -0.696426        -1.257396
 O         1.718064         1.311032         0.116413
 H        -0.480791         0.031784         1.201386
 H        -0.545308        -0.391556        -0.696908
 H         0.072837        -1.493124         0.598024
 H         2.531064        -0.194235         2.048808
 H         3.232510        -1.339440         0.704516
 H         5.171753         2.088350        -0.061634
 H         4.987296         0.794472         1.136974
 H         3.421777         1.329040        -1.896004
 H         1.668580        -0.676163        -2.231548
 H         2.664586        -1.625270        -0.976462
