19
Iteration:  2372
 C        -0.062534        -0.495952         0.323477
 C         1.377132        -0.110262         0.097437
 C         2.559027        -0.362880         1.000287
 C         3.148517         0.749170         0.258662
 C         4.658813         1.148631         0.197364
 O         4.847484         0.260798        -0.936791
 C         3.357089         0.262596        -1.093416
 C         2.154569        -0.687897        -1.356959
 O         1.725083         1.330775         0.045606
 H        -0.566910        -0.014191         1.308574
 H        -0.466275        -0.369353        -0.795373
 H         0.208004        -1.521175         0.559594
 H         2.270088        -0.018498         2.013729
 H         3.010622        -1.397263         1.031180
 H         4.704587         2.157312        -0.335853
 H         5.374694         1.105576         0.970122
 H         3.158491         1.111082        -1.823296
 H         1.874046        -0.268095        -2.316501
 H         2.288064        -1.807353        -1.304588
