19
Iteration:  1699
 C         0.075692        -0.537583         0.236913
 C         1.425190        -0.079717         0.088790
 C         2.473851        -0.452548         1.053381
 C         3.149459         0.739029         0.223384
 C         4.590636         1.286095         0.128427
 O         4.822242         0.204030        -0.820372
 C         3.322734         0.291846        -1.184335
 C         2.112044        -0.625591        -1.351773
 O         1.818468         1.319954         0.126641
 H        -0.541168        -0.205270         1.016387
 H        -0.415605        -0.267174        -0.713699
 H         0.083861        -1.570382         0.192854
 H         2.355998        -0.017535         2.067796
 H         2.902499        -1.465104         1.094170
 H         4.843240         2.213624        -0.352840
 H         5.219450         1.138143         1.052210
 H         3.130600         1.050260        -1.945044
 H         1.419416        -0.567277        -2.239121
 H         2.287900        -1.665957        -1.234083
