19
Iteration:  1467
 C         0.072254        -0.517609         0.213161
 C         1.436089        -0.118513         0.040086
 C         2.606296        -0.400455         0.943782
 C         3.123932         0.793871         0.187939
 C         4.620588         1.263588         0.154568
 O         4.754754         0.149773        -0.829362
 C         3.350917         0.327370        -1.189447
 C         2.165429        -0.641849        -1.298542
 O         1.680850         1.302651         0.213215
 H        -0.334945         0.026296         1.067271
 H        -0.626130        -0.330291        -0.655681
 H         0.082744        -1.533949         0.346091
 H         2.497116        -0.055918         2.018282
 H         3.047259        -1.421397         0.985231
 H         4.863870         2.247998        -0.184632
 H         5.229404         0.949125         1.149624
 H         3.344315         1.018912        -1.943830
 H         1.446107        -0.364024        -2.094156
 H         2.300356        -1.768875        -1.274225
