19
Iteration:   702charge 0 multiplicity 1
 C         0.067763        -0.648693         0.369050
 C         1.405413        -0.079392        -0.018605
 C         2.541637        -0.354119         0.996402
 C         3.150753         0.855618         0.203276
 C         4.726535         1.133949         0.241047
 O         4.803298         0.183924        -0.829842
 C         3.363422         0.352321        -1.202449
 C         2.067630        -0.615818        -1.379948
 O         1.670865         1.349074         0.053506
 H        -0.186019        -0.556131         1.469274
 H        -0.778306        -0.378658        -0.186437
 H         0.229002        -1.644298         0.212841
 H         2.265413        -0.126216         2.042766
 H         3.240226        -1.200121         0.997552
 H         5.040713         2.058578        -0.190568
 H         5.226066         0.945272         1.123780
 H         3.384727         1.078230        -1.911504
 H         1.304751        -0.269142        -2.078901
 H         2.135280        -1.673419        -1.395631
