19
Iteration:  1721charge 0 multiplicity 1
 C        -0.038665        -0.522480         0.193358
 C         1.412007        -0.258429        -0.005737
 C         2.708542        -0.343605         0.978727
 C         3.101395         0.814062         0.205808
 C         4.559776         1.227234         0.179081
 O         4.755092         0.116586        -0.813647
 C         3.382186         0.310737        -1.197542
 C         2.194942        -0.651654        -1.280771
 O         1.724143         1.388316         0.214346
 H        -0.295876        -0.071082         1.137274
 H        -0.655616         0.059069        -0.545412
 H        -0.367238        -1.520859         0.131845
 H         2.421346        -0.026474         2.015858
 H         3.485450        -1.136860         1.053683
 H         4.764027         2.170256        -0.335724
 H         5.242970         1.103769         1.067527
 H         3.242792         1.087377        -2.002293
 H         1.620027        -0.475503        -2.263290
 H         2.358846        -1.699342        -1.367623
