19
Iteration:   762
 C         0.072870        -0.509082         0.248426
 C         1.502851        -0.149264         0.038273
 C         2.711130        -0.387438         0.942652
 C         3.082729         0.884830         0.212151
 C         4.685775         1.235624         0.153440
 O         4.757975         0.073701        -0.805706
 C         3.309391         0.336061        -1.173145
 C         2.123417        -0.605280        -1.319202
 O         1.577989         1.259489         0.191956
 H        -0.338110        -0.079824         1.125589
 H        -0.428450         0.048540        -0.663930
 H        -0.228967        -1.661809         0.117640
 H         2.441512        -0.107853         1.964203
 H         3.442302        -1.178316         0.732395
 H         4.812341         2.254317        -0.399973
 H         5.105043         1.320345         1.284671
 H         3.221799         1.113059        -2.031486
 H         1.478804        -0.592992        -2.214443
 H         2.582992        -1.635221        -1.147049
