19
Iteration:  3203
 C         0.037418        -0.441839         0.305905
 C         1.484403        -0.190103        -0.011057
 C         2.633330        -0.326498         1.010591
 C         3.096341         0.815536         0.154535
 C         4.610847         1.219068         0.243025
 O         4.764924         0.211210        -0.780534
 C         3.331378         0.227067        -1.213259
 C         2.153757        -0.668997        -1.270852
 O         1.715002         1.273672         0.025941
 H        -0.199110         0.002450         1.235332
 H        -0.569526         0.080354        -0.469827
 H        -0.340854        -1.457797         0.135420
 H         2.445416        -0.092512         2.044353
 H         3.180620        -1.310206         1.122932
 H         4.989458         2.132560        -0.296652
 H         5.073587         0.928441         1.124134
 H         3.126867         1.120991        -1.935065
 H         1.384001        -0.532705        -2.128070
 H         2.390110        -1.758937        -1.215064
