19
Iteration:  4027
 C         0.003628        -0.614521         0.274297
 C         1.401096        -0.138344         0.091709
 C         2.681468        -0.380846         1.011734
 C         3.093147         0.874239         0.077739
 C         4.609059         1.342591         0.171902
 O         4.797380         0.033874        -0.724880
 C         3.353854         0.316076        -1.187752
 C         2.137170        -0.613553        -1.294305
 O         1.700435         1.357896         0.090730
 H        -0.459055        -0.342780         1.237250
 H        -0.689305        -0.178241        -0.512878
 H         0.023156        -1.684808         0.033123
 H         2.631501        -0.034794         2.010078
 H         3.180801        -1.424284         0.754054
 H         4.799208         2.261125        -0.344122
 H         5.215201         1.099606         1.052637
 H         3.326749         0.909949        -2.143299
 H         1.719687        -0.131046        -2.210434
 H         2.259579        -1.688300        -1.294125
