19
Iteration:  3493
 C        -0.011324        -0.517156         0.359612
 C         1.429462        -0.156677        -0.032808
 C         2.623546        -0.339572         0.948060
 C         3.139585         0.874922         0.163733
 C         4.618203         1.235708         0.118362
 O         4.782701         0.073347        -0.665463
 C         3.335523         0.313844        -1.207802
 C         2.229086        -0.688839        -1.382206
 O         1.653056         1.349347         0.083235
 H        -0.163192        -0.294805         1.430687
 H        -0.847949        -0.004365        -0.157346
 H        -0.165860        -1.585969         0.239952
 H         2.429311         0.098613         1.943395
 H         3.264020        -1.222070         0.780048
 H         4.902389         2.226026        -0.186020
 H         5.125900         1.016829         1.163474
 H         3.376565         1.120942        -2.040584
 H         1.564617        -0.668827        -2.331513
 H         2.497995        -1.635171        -0.958478
