19
Iteration:  3757charge 0 multiplicity 1
 C        -0.007554        -0.424578         0.209937
 C         1.433350        -0.193896         0.061019
 C         2.645612        -0.380165         1.036598
 C         3.061600         0.875171         0.232898
 C         4.721424         1.299107         0.103360
 O         4.775252         0.148728        -0.820095
 C         3.263351         0.322299        -1.166660
 C         2.203000        -0.723331        -1.279191
 O         1.676251         1.239128         0.128957
 H        -0.683420         0.186724         0.854454
 H        -0.466331        -0.081699        -0.751211
 H        -0.076428        -1.478909         0.469250
 H         2.471115        -0.183893         2.108857
 H         3.349685        -1.287581         0.990318
 H         5.114950         2.168856        -0.389041
 H         5.469316         1.122006         1.017384
 H         3.200335         1.088955        -1.981224
 H         1.664061        -0.666632        -2.251326
 H         2.206518        -1.887774        -1.207819
