19
Iteration:  2338charge 0 multiplicity 1
 C         0.081991        -0.512786         0.247255
 C         1.471808        -0.265144         0.030075
 C         2.631623        -0.332138         1.005683
 C         3.078910         0.867987         0.161723
 C         4.583203         1.147935         0.196524
 O         4.728722         0.116029        -0.814758
 C         3.275653         0.359142        -1.255158
 C         2.146103        -0.715565        -1.356995
 O         1.782651         1.452989         0.230021
 H        -0.379622         0.117319         1.065175
 H        -0.585159        -0.372927        -0.687387
 H        -0.090144        -1.582436         0.452154
 H         2.283203         0.058870         1.987476
 H         3.241867        -1.277905         1.105819
 H         4.841553         2.140039        -0.282167
 H         5.093691         1.026405         1.110149
 H         3.344951         1.138598        -2.052087
 H         1.629469        -0.736953        -2.290356
 H         2.533232        -1.723395        -1.225998
