19
Iteration:  4452
 C         0.054610        -0.472093         0.272210
 C         1.463826        -0.115470        -0.043147
 C         2.587524        -0.350050         0.955900
 C         3.139306         0.805539         0.187398
 C         4.592184         1.234941         0.255126
 O         4.767512         0.174637        -0.815633
 C         3.299641         0.272722        -1.249454
 C         2.151158        -0.716631        -1.286405
 O         1.742871         1.316039         0.114217
 H        -0.227075         0.242195         1.178732
 H        -0.770633        -0.283148        -0.440300
 H        -0.155775        -1.487835         0.604267
 H         2.304704         0.042694         1.978263
 H         3.018982        -1.334007         1.053629
 H         4.882218         2.241613         0.111635
 H         5.301576         0.866745         0.994792
 H         3.161448         1.004924        -2.079158
 H         1.577404        -0.851113        -2.142362
 H         2.610002        -1.715998        -0.969632
