19
Iteration:  3401charge 0 multiplicity 1
 C        -0.007618        -0.485724         0.210525
 C         1.468955        -0.206568        -0.033072
 C         2.562874        -0.347078         1.056017
 C         3.142273         0.838091         0.224444
 C         4.575682         1.256637         0.134278
 O         4.744034         0.108478        -0.790081
 C         3.318224         0.354422        -1.226869
 C         2.160579        -0.737330        -1.294489
 O         1.812616         1.338314         0.162012
 H        -0.474398         0.085414         1.006354
 H        -0.638877        -0.265671        -0.652044
 H        -0.103173        -1.564758         0.511727
 H         2.327161         0.186474         2.019496
 H         3.148574        -1.287296         1.097615
 H         4.671279         2.298098        -0.274196
 H         5.321577         1.185199         0.811358
 H         3.288472         1.194692        -1.930844
 H         1.602876        -0.816126        -2.197388
 H         2.626652        -1.754172        -1.018675
