19
Iteration:  3871charge 0 multiplicity 1
 C         0.049471        -0.558667         0.282379
 C         1.469711        -0.235972         0.026276
 C         2.678421        -0.287913         0.981154
 C         3.070446         0.899752         0.166510
 C         4.582403         1.234439         0.186687
 O         4.797622         0.054067        -0.775059
 C         3.368497         0.318504        -1.233681
 C         2.103124        -0.651655        -1.320550
 O         1.657093         1.367602         0.164264
 H        -0.435618        -0.145950         1.160461
 H        -0.387241         0.066483        -0.507507
 H        -0.154985        -1.637384         0.132751
 H         2.544845         0.038289         2.090671
 H         3.422460        -1.094799         0.819510
 H         5.037702         2.129044        -0.241442
 H         5.041540         1.070566         1.098117
 H         3.449864         0.913512        -2.210915
 H         1.395243        -0.497918        -2.199559
 H         2.269616        -1.729792        -1.256699
