19
Iteration:  4718
 C         0.005626        -0.499309         0.238969
 C         1.493269        -0.139888         0.134665
 C         2.713392        -0.312494         1.005818
 C         3.110276         0.892780         0.102834
 C         4.576446         1.200487         0.252260
 O         4.735916         0.122776        -0.750706
 C         3.319320         0.277919        -1.258600
 C         2.139691        -0.701331        -1.336382
 O         1.712987         1.318501         0.070848
 H        -0.283844        -0.533598         1.271104
 H        -0.616539         0.258961        -0.302009
 H        -0.351859        -1.521708        -0.149706
 H         2.622256        -0.260773         2.031803
 H         3.252531        -1.319195         0.877082
 H         4.828262         2.163794        -0.179202
 H         5.220278         1.067759         1.235113
 H         3.287235         1.111663        -2.026657
 H         1.478278        -0.469909        -2.219382
 H         2.410721        -1.692338        -1.161699
