19
Iteration:   761charge 0 multiplicity 1
 C         0.069391        -0.523157         0.242219
 C         1.498289        -0.152708         0.032051
 C         2.715545        -0.384005         0.941511
 C         3.088917         0.883561         0.213387
 C         4.685010         1.232920         0.146091
 O         4.753103         0.077435        -0.795905
 C         3.296921         0.335516        -1.168159
 C         2.123532        -0.595436        -1.318062
 O         1.587722         1.265560         0.188029
 H        -0.345855        -0.081193         1.149621
 H        -0.436332         0.032319        -0.639966
 H        -0.223856        -1.627359         0.113151
 H         2.458030        -0.104996         1.964983
 H         3.459518        -1.180637         0.728696
 H         4.814549         2.216764        -0.402697
 H         5.115813         1.311974         1.265925
 H         3.229016         1.075761        -2.003141
 H         1.487530        -0.597329        -2.200179
 H         2.579493        -1.616293        -1.140459
