19
Iteration:   826
 C         0.049348        -0.559144         0.286345
 C         1.388568        -0.101319         0.046305
 C         2.482803        -0.428226         1.016688
 C         3.124373         0.817885         0.195624
 C         4.646578         1.181987         0.157097
 O         4.842401         0.293236        -0.922709
 C         3.403519         0.214520        -1.191568
 C         2.191454        -0.622619        -1.274514
 O         1.677515         1.328070         0.142320
 H        -0.221585        -0.082361         1.198670
 H        -0.731127        -0.249799        -0.480977
 H         0.064981        -1.656873         0.381849
 H         2.036395        -0.164632         2.020082
 H         2.962230        -1.453870         1.066206
 H         4.836874         2.169763        -0.196037
 H         5.294447         0.943150         1.105852
 H         3.314537         1.071642        -1.783999
 H         1.824549        -0.315371        -2.253934
 H         2.189357        -1.751728        -1.234385
