19
Iteration:  4507charge 0 multiplicity 1
 C         0.060163        -0.450003         0.215999
 C         1.526432        -0.203238         0.062620
 C         2.583479        -0.292996         1.048143
 C         3.138902         0.860966         0.228356
 C         4.576285         1.282739         0.078166
 O         4.772648         0.049148        -0.767186
 C         3.360889         0.293321        -1.223972
 C         2.151130        -0.649671        -1.351377
 O         1.675210         1.287224         0.147858
 H        -0.500483        -0.538139         1.288448
 H        -0.476927         0.116945        -0.598245
 H        -0.173903        -1.495291        -0.089798
 H         2.360378        -0.073984         2.156667
 H         3.167517        -1.204532         1.149668
 H         4.860750         2.181904        -0.467424
 H         5.193613         1.049425         0.987806
 H         3.212927         1.201011        -1.895247
 H         1.391918        -0.451648        -2.034467
 H         2.360295        -1.780974        -1.109052
