19
Iteration:   186charge 0 multiplicity 1
 C         0.058771        -0.560225         0.271838
 C         1.462608        -0.167582         0.011573
 C         2.619924        -0.325249         1.000245
 C         3.058446         0.956884         0.197090
 C         4.713525         1.140455         0.170402
 O         4.779425         0.120307        -0.868549
 C         3.346488         0.370681        -1.232034
 C         2.201385        -0.681509        -1.291867
 O         1.568941         1.358973         0.193454
 H        -0.296348        -0.414154         1.364041
 H        -0.602021        -0.005356        -0.392978
 H        -0.120292        -1.663738         0.047505
 H         2.290283        -0.198652         2.044296
 H         3.144785        -1.276333         0.870521
 H         5.245624         2.091982        -0.098214
 H         5.152411         0.697232         1.045571
 H         3.281087         1.043992        -2.104468
 H         1.594626        -0.601466        -2.157328
 H         2.524194        -1.654277        -1.171326
