19
Iteration:  2545charge 0 multiplicity 1
 C         0.015446        -0.514152         0.239234
 C         1.506817        -0.286865         0.030866
 C         2.548122        -0.364643         1.088680
 C         3.121740         0.839300         0.222270
 C         4.608234         1.226181         0.101365
 O         4.840348         0.142599        -0.818159
 C         3.353498         0.297417        -1.214414
 C         2.076594        -0.646548        -1.373949
 O         1.725976         1.379661         0.191097
 H        -0.408577         0.226268         0.936870
 H        -0.615654        -0.303953        -0.680650
 H        -0.126988        -1.491114         0.654010
 H         2.192223        -0.099852         2.178057
 H         3.143157        -1.380724         1.274159
 H         4.942672         2.275083        -0.341858
 H         5.262826         1.090587         0.940332
 H         3.359693         1.271230        -1.869152
 H         1.504859        -0.357942        -2.271484
 H         2.249390        -1.714750        -1.739564
