19
Iteration:  2176charge 0 multiplicity 1
 C        -0.027710        -0.597663         0.286206
 C         1.416647        -0.073473         0.040576
 C         2.500763        -0.355107         0.995946
 C         3.130185         0.735017         0.280498
 C         4.623131         1.189328         0.126646
 O         4.857296         0.182400        -0.865648
 C         3.414239         0.288709        -1.176417
 C         2.115888        -0.660119        -1.347820
 O         1.773676         1.417214         0.167563
 H        -0.395262        -0.021220         1.170670
 H        -0.732071        -0.466516        -0.613673
 H         0.200748        -1.596458         0.440383
 H         2.291480        -0.145299         2.031582
 H         2.763085        -1.369187         0.842105
 H         4.584564         2.188303        -0.396672
 H         5.351931         1.144944         0.973298
 H         3.230977         1.055893        -1.923217
 H         1.547844        -0.394711        -2.308565
 H         2.317024        -1.822829        -1.337447
