19
Iteration:  1765
 C         0.027753        -0.600512         0.347837
 C         1.475143        -0.173093        -0.012009
 C         2.615284        -0.329429         0.967054
 C         3.124038         0.814794         0.163437
 C         4.568100         1.183388         0.245079
 O         4.779910         0.128961        -0.796361
 C         3.337022         0.311526        -1.183606
 C         2.136716        -0.581541        -1.346482
 O         1.742490         1.361994         0.056709
 H        -0.191552        -0.441695         1.424608
 H        -0.629593         0.109834        -0.207182
 H        -0.225529        -1.606612         0.015742
 H         2.373076         0.069843         1.989965
 H         3.103996        -1.329313         1.073512
 H         4.648501         2.245646        -0.113879
 H         5.170801         0.986960         1.146749
 H         3.474175         1.189354        -1.881422
 H         1.586956        -0.440560        -2.323387
 H         2.251229        -1.658789        -1.296561
