19
Iteration:  4405
 C         0.025750        -0.563655         0.324958
 C         1.396481        -0.143610         0.017109
 C         2.619136        -0.322759         1.011185
 C         3.134822         0.827410         0.168451
 C         4.663021         1.223844         0.199948
 O         4.818194         0.099046        -0.762616
 C         3.401294         0.346641        -1.181534
 C         2.058992        -0.640090        -1.297631
 O         1.700649         1.312435         0.022840
 H        -0.452945        -0.035310         1.151568
 H        -0.730770        -0.323709        -0.469768
 H        -0.067462        -1.664079         0.421828
 H         2.233345        -0.081361         1.990313
 H         3.223500        -1.252519         0.975731
 H         4.978306         2.080072        -0.462536
 H         5.244511         1.302656         1.087883
 H         3.303320         1.133549        -1.980806
 H         1.548773        -0.287554        -2.292795
 H         2.153947        -1.708716        -1.320281
