19
Iteration:  4265
 C        -0.006027        -0.483104         0.210059
 C         1.471437        -0.261601         0.080383
 C         2.655242        -0.351301         1.072054
 C         3.145398         0.849577         0.254857
 C         4.566691         1.280954         0.103385
 O         4.780803         0.114443        -0.823105
 C         3.374225         0.321595        -1.138981
 C         2.084313        -0.716872        -1.340724
 O         1.717886         1.353249         0.099942
 H        -0.439129         0.242270         0.953049
 H        -0.581028        -0.356774        -0.744158
 H        -0.077576        -1.566584         0.465203
 H         2.373871         0.006598         2.024842
 H         3.198839        -1.320150         1.106910
 H         4.810665         2.262493        -0.344590
 H         5.181148         1.184037         0.979472
 H         3.451779         1.098722        -1.959127
 H         1.649870        -0.416912        -2.320809
 H         2.283909        -1.807950        -1.306049
