19
Iteration:  4444
 C         0.026049        -0.441934         0.333306
 C         1.497257        -0.195901        -0.038830
 C         2.541584        -0.324931         1.012116
 C         3.156240         0.822440         0.176797
 C         4.615793         1.174761         0.225943
 O         4.728444         0.187083        -0.801968
 C         3.327560         0.309647        -1.292881
 C         2.203462        -0.704093        -1.325378
 O         1.710549         1.298728         0.113716
 H        -0.252719         0.291332         1.133417
 H        -0.556039        -0.184889        -0.578776
 H         0.012456        -1.509618         0.665396
 H         2.361354         0.148506         2.022740
 H         3.219765        -1.194522         0.831158
 H         4.808298         2.219333        -0.077833
 H         4.959764         0.752606         1.287180
 H         3.323383         1.153715        -1.966343
 H         1.598896        -0.891462        -2.219391
 H         2.411209        -1.755709        -1.010006
