19
Iteration:  4440charge 0 multiplicity 1
 C         0.025320        -0.430928         0.347832
 C         1.461776        -0.217291        -0.003496
 C         2.569417        -0.324758         1.031304
 C         3.105113         0.831542         0.144737
 C         4.611063         1.130488         0.231566
 O         4.739703         0.177828        -0.816125
 C         3.359710         0.360120        -1.268227
 C         2.228478        -0.723670        -1.350319
 O         1.694642         1.308342         0.101997
 H        -0.280109         0.300274         1.220967
 H        -0.450413        -0.239584        -0.626573
 H        -0.021636        -1.457702         0.674893
 H         2.330094         0.031998         2.054078
 H         3.270013        -1.133090         0.983520
 H         4.873805         2.073810        -0.199505
 H         4.851313         0.911745         1.231119
 H         3.379826         1.218306        -1.994005
 H         1.657369        -0.697912        -2.256013
 H         2.434116        -1.811604        -1.094567
