19
Iteration:  3236charge 0 multiplicity 1
 C        -0.093125        -0.516821         0.329882
 C         1.379540        -0.110128        -0.008921
 C         2.479721        -0.365157         1.021856
 C         3.143629         0.788490         0.203655
 C         4.571901         1.215806         0.147226
 O         4.818010         0.176425        -0.877830
 C         3.449233         0.223169        -1.169186
 C         2.289986        -0.669681        -1.311742
 O         1.761146         1.367962         0.130730
 H        -0.264589         0.029836         1.209956
 H        -0.841184        -0.238680        -0.447421
 H        -0.124724        -1.599150         0.645160
 H         2.102058         0.049514         1.929125
 H         3.034660        -1.345148         0.937007
 H         4.785979         2.220639        -0.407845
 H         5.221152         1.173943         0.953549
 H         3.095751         1.095360        -1.862248
 H         1.749831        -0.689981        -2.312586
 H         2.654958        -1.711345        -1.073211
