19
Iteration:  3899charge 0 multiplicity 1
 C        -0.017662        -0.566574         0.246988
 C         1.414933        -0.079239        -0.005571
 C         2.551784        -0.402394         1.016273
 C         3.167585         0.793519         0.300702
 C         4.601525         1.317574         0.068295
 O         4.776870         0.106296        -0.799942
 C         3.340216         0.345728        -1.150132
 C         2.146695        -0.645245        -1.285459
 O         1.793688         1.320369         0.115656
 H        -0.534011        -0.313022         1.208450
 H        -0.644248        -0.226951        -0.606646
 H         0.079182        -1.659609         0.266348
 H         2.502412        -0.110870         2.040499
 H         3.033056        -1.354958         0.913434
 H         4.686425         2.257027        -0.541246
 H         5.376553         1.363354         0.939985
 H         3.278815         0.966966        -2.006239
 H         1.548726        -0.664422        -2.154964
 H         2.411860        -1.759560        -1.226946
