19
Iteration:  3369charge 0 multiplicity 1
 C         0.009928        -0.454768         0.278054
 C         1.447820        -0.185411         0.034270
 C         2.647377        -0.314124         1.004758
 C         3.035473         0.910908         0.192524
 C         4.570219         1.178027         0.168656
 O         4.861183         0.112462        -0.797883
 C         3.420561         0.318197        -1.208620
 C         2.115120        -0.699740        -1.252955
 O         1.650959         1.297670         0.070958
 H        -0.323218        -0.051330         1.207899
 H        -0.538168        -0.108232        -0.567650
 H        -0.221770        -1.517148         0.215704
 H         2.583753        -0.023117         2.097050
 H         3.321602        -1.171734         0.828566
 H         4.704095         2.259266        -0.121898
 H         5.187325         0.841131         0.934372
 H         3.497964         1.031664        -2.082344
 H         1.604805        -0.548288        -2.169288
 H         2.356029        -1.829346        -1.137852
