19
Iteration:  2331
 C         0.052077        -0.513517         0.242414
 C         1.491503        -0.252471        -0.002951
 C         2.662115        -0.317588         0.964369
 C         3.125469         0.862153         0.166515
 C         4.585559         1.182058         0.157635
 O         4.661444         0.078477        -0.819439
 C         3.296423         0.315114        -1.163693
 C         2.218877        -0.683092        -1.328846
 O         1.725145         1.438262         0.213918
 H        -0.533584        -0.052722         1.167490
 H        -0.484859        -0.170661        -0.682418
 H        -0.201787        -1.537043         0.537741
 H         2.521394         0.063428         1.957591
 H         3.335105        -1.142688         0.990169
 H         4.863108         2.206747        -0.122791
 H         5.042021         0.962806         1.181718
 H         3.298508         0.957806        -1.996986
 H         1.442088        -0.404989        -2.163251
 H         2.672643        -1.780283        -1.432068
