19
Iteration:  1008
 C         0.029033        -0.603096         0.247748
 C         1.462656        -0.201494         0.006573
 C         2.475236        -0.460109         1.052122
 C         3.133988         0.803499         0.276069
 C         4.710790         1.277987         0.114486
 O         4.839635         0.196141        -0.846681
 C         3.360315         0.299314        -1.149579
 C         2.114442        -0.556295        -1.387896
 O         1.733645         1.342755         0.164972
 H        -0.356561        -0.069349         1.265158
 H        -0.544264        -0.128585        -0.591519
 H        -0.108264        -1.666455         0.385124
 H         2.077552        -0.158414         1.982503
 H         2.805499        -1.470055         1.179144
 H         4.624361         2.347269        -0.390500
 H         5.319864         1.180521         0.933975
 H         3.274101         1.022101        -2.031919
 H         1.552715        -0.287504        -2.240252
 H         2.080760        -1.627382        -1.323731
