19
Iteration:  2462
 C         0.052791        -0.564209         0.305015
 C         1.453297        -0.185599         0.103924
 C         2.533146        -0.373973         1.143197
 C         3.149799         0.789862         0.158870
 C         4.602185         1.229144         0.158816
 O         4.846710         0.103752        -0.771604
 C         3.323296         0.323785        -1.291023
 C         2.110473        -0.554734        -1.381086
 O         1.736450         1.343089         0.053612
 H        -0.228704        -0.486269         1.464154
 H        -0.709921        -0.013740        -0.319346
 H        -0.158204        -1.614631        -0.150341
 H         2.282149         0.043654         2.122060
 H         3.038814        -1.303610         1.267849
 H         4.696149         2.118079        -0.462781
 H         5.324126         1.224485         1.011171
 H         3.258151         1.226501        -1.941407
 H         1.482277        -0.178977        -2.242010
 H         2.316617        -1.657001        -1.460465
