19
Iteration:   820charge 0 multiplicity 1
 C         0.055597        -0.553029         0.271243
 C         1.420225        -0.061577        -0.009684
 C         2.440746        -0.444846         1.036518
 C         3.128260         0.740547         0.244133
 C         4.666059         1.221923         0.199370
 O         4.856235         0.303601        -0.944891
 C         3.378013         0.221194        -1.188407
 C         2.156602        -0.661664        -1.251468
 O         1.701545         1.342467         0.101703
 H        -0.139673        -0.072555         1.292639
 H        -0.755312        -0.278765        -0.402291
 H         0.120366        -1.688347         0.498872
 H         2.345299        -0.279726         2.113422
 H         2.808860        -1.450396         0.948655
 H         4.727045         2.377518        -0.059844
 H         5.247597         1.009792         1.094565
 H         3.291150         1.041917        -2.033837
 H         1.577430        -0.328248        -2.155586
 H         2.237126        -1.731302        -1.259617
