19
Iteration:  3669charge 0 multiplicity 1
 C        -0.024011        -0.533758         0.317443
 C         1.456285        -0.172856         0.062665
 C         2.678746        -0.269542         1.004821
 C         3.073163         0.889579         0.140137
 C         4.638106         1.255814         0.167411
 O         4.732442         0.033973        -0.718600
 C         3.309725         0.343317        -1.253416
 C         2.260503        -0.658367        -1.408892
 O         1.660363         1.305071         0.127693
 H        -0.229851        -0.258973         1.336698
 H        -0.584104        -0.034186        -0.509380
 H        -0.299949        -1.612592         0.291959
 H         2.576182         0.092347         1.991981
 H         3.240062        -1.295343         1.136041
 H         4.932046         2.107954        -0.355262
 H         5.184251         1.080742         1.178019
 H         3.410114         1.064012        -2.121987
 H         1.643229        -0.584039        -2.383544
 H         2.454733        -1.753349        -1.296471
