19
Iteration:  4286charge 0 multiplicity 1
 C         0.025834        -0.509379         0.275896
 C         1.356434        -0.065664        -0.028053
 C         2.520716        -0.376179         1.026284
 C         3.165501         0.785702         0.190109
 C         4.601791         1.263416         0.179929
 O         4.846883         0.213689        -0.865420
 C         3.361033         0.193243        -1.229967
 C         2.127307        -0.722261        -1.184963
 O         1.750154         1.343330         0.144496
 H        -0.500441         0.092400         1.051317
 H        -0.685523        -0.338387        -0.610769
 H         0.104973        -1.637554         0.349585
 H         2.215776        -0.156381         2.005713
 H         3.050083        -1.345579         0.882773
 H         4.755803         2.238250        -0.323854
 H         5.259802         1.212854         0.984573
 H         3.353448         1.049974        -1.989760
 H         1.813383        -0.655633        -2.282798
 H         2.504780        -1.713567        -1.106997
