19
Iteration:  2381charge 0 multiplicity 1
 C        -0.020347        -0.486741         0.314524
 C         1.438607        -0.126658         0.038256
 C         2.575236        -0.364556         1.101931
 C         3.142543         0.793384         0.306879
 C         4.646809         1.186528         0.165801
 O         4.846530         0.233464        -0.917096
 C         3.361564         0.247513        -1.114483
 C         2.157609        -0.703640        -1.424687
 O         1.697446         1.316076         0.030171
 H        -0.516297         0.062584         1.135223
 H        -0.692815        -0.132262        -0.561453
 H        -0.209404        -1.556698         0.507707
 H         2.338483        -0.150002         2.175980
 H         3.230786        -1.303992         0.998059
 H         4.740971         2.294201        -0.063003
 H         5.420695         0.939273         0.869003
 H         3.046535         1.190646        -1.720203
 H         1.465657        -0.438675        -2.191509
 H         2.180896        -1.765329        -1.449508
