19
Iteration:  4602
 C        -0.002567        -0.498981         0.243773
 C         1.455863        -0.173870         0.054961
 C         2.643085        -0.395719         0.987447
 C         3.090727         0.800454         0.183432
 C         4.636962         1.215374         0.106610
 O         4.779502         0.086684        -0.762976
 C         3.353332         0.342183        -1.226406
 C         2.179560        -0.670663        -1.289515
 O         1.699992         1.412580         0.120857
 H        -0.480903         0.172173         0.984557
 H        -0.639505        -0.559732        -0.601336
 H        -0.144916        -1.419355         0.773296
 H         2.264518        -0.151267         2.035460
 H         3.125371        -1.385471         0.992019
 H         4.659650         2.331354        -0.234649
 H         5.207778         1.006773         1.003919
 H         3.303611         1.198853        -1.887448
 H         1.472301        -0.408850        -2.112097
 H         2.606459        -1.715968        -1.231804
