19
Iteration:  1542
 C        -0.063782        -0.514991         0.254864
 C         1.424199        -0.203116         0.041977
 C         2.687270        -0.366558         0.957574
 C         3.143408         0.868332         0.090229
 C         4.611755         1.129276         0.251765
 O         4.755106         0.166330        -0.848984
 C         3.279839         0.397677        -1.230920
 C         2.250357        -0.684429        -1.299674
 O         1.665836         1.334431         0.201747
 H        -0.254684        -0.055316         1.259641
 H        -0.568316        -0.007581        -0.532300
 H        -0.341247        -1.540675         0.221249
 H         2.462028         0.019029         1.978303
 H         3.256188        -1.319826         0.899910
 H         5.044782         2.087509         0.020415
 H         5.174686         0.922292         1.272044
 H         3.319402         1.168223        -2.011921
 H         1.823693        -0.623529        -2.245650
 H         2.672241        -1.693715        -1.124229
