19
Iteration:   314charge 0 multiplicity 1
 C         0.090356        -0.672615         0.323298
 C         1.399307        -0.124897        -0.016068
 C         2.469502        -0.352389         0.966424
 C         3.195511         0.762831         0.281458
 C         4.654357         1.163109         0.134751
 O         4.899635         0.221697        -0.924878
 C         3.349943         0.287555        -1.116955
 C         2.038147        -0.588598        -1.277098
 O         1.698798         1.428053         0.091343
 H        -0.344934        -0.150310         1.275179
 H        -0.597753        -0.496994        -0.418001
 H         0.124375        -1.734660         0.542833
 H         2.095442        -0.072166         1.997929
 H         3.103730        -1.285948         1.000431
 H         4.742645         2.209667        -0.114390
 H         5.291198         0.831109         1.098832
 H         3.216545         1.160079        -1.766119
 H         1.459759        -0.306527        -2.243943
 H         2.300061        -1.761131        -1.418761
