19
Iteration:  1291charge 0 multiplicity 1
 C         0.093649        -0.577125         0.267559
 C         1.420020        -0.121573        -0.052140
 C         2.484982        -0.419385         1.037548
 C         3.120447         0.818363         0.255558
 C         4.568031         1.178488         0.180046
 O         4.901810         0.236909        -0.908940
 C         3.348702         0.260173        -1.158939
 C         2.116975        -0.666472        -1.345297
 O         1.725170         1.405664         0.150427
 H        -0.126240        -0.060468         1.295295
 H        -0.777109        -0.379183        -0.320846
 H         0.024523        -1.560459         0.489376
 H         2.344125        -0.097457         2.092733
 H         3.136393        -1.313299         0.961840
 H         4.810514         2.201885        -0.144806
 H         5.115240         0.871701         1.150719
 H         3.187252         1.032447        -1.851453
 H         1.606672        -0.332108        -2.292971
 H         2.144626        -1.825894        -1.288381
