19
Iteration:  2298
 C        -0.004923        -0.562621         0.328514
 C         1.458190        -0.145047         0.036346
 C         2.592800        -0.381446         1.000812
 C         3.198377         0.775674         0.161022
 C         4.682556         1.230495         0.104452
 O         4.868836         0.099054        -0.701396
 C         3.306476         0.350693        -1.226658
 C         2.023695        -0.558556        -1.329553
 O         1.652770         1.317336         0.086794
 H        -0.301215        -0.242465         1.416289
 H        -0.587235        -0.013256        -0.448266
 H         0.036288        -1.558238        -0.054238
 H         2.400204         0.115199         1.934385
 H         3.146291        -1.295769         1.058872
 H         4.784979         2.242249        -0.352873
 H         5.266662         1.092279         1.070004
 H         3.439855         1.061032        -2.011243
 H         1.198503        -0.439249        -2.135209
 H         2.510692        -1.655159        -1.366979
