19
Iteration:  3996
 C         0.048855        -0.589652         0.281262
 C         1.426869        -0.173051        -0.092384
 C         2.590154        -0.322277         1.087354
 C         3.115998         0.806457         0.196345
 C         4.607587         1.324042         0.117924
 O         4.831685         0.081806        -0.763785
 C         3.299628         0.299405        -1.127602
 C         2.113129        -0.642866        -1.373209
 O         1.744433         1.359913         0.125406
 H        -0.156503        -0.313349         1.363329
 H        -0.656399        -0.184095        -0.493406
 H        -0.003891        -1.691800         0.291908
 H         2.304729         0.019818         2.058770
 H         3.172421        -1.288076         1.281014
 H         4.621569         2.260960        -0.396216
 H         5.381900         1.214305         0.937321
 H         3.234131         1.056731        -1.932226
 H         1.649946        -0.313776        -2.290869
 H         2.136619        -1.771155        -1.507273
