19
Iteration:  3924charge 0 multiplicity 1
 C        -0.001922        -0.498277         0.224010
 C         1.468993        -0.233497         0.024639
 C         2.533549        -0.351801         1.110833
 C         3.112884         0.781307         0.232287
 C         4.557548         1.198845         0.137819
 O         4.828760         0.227416        -0.908823
 C         3.380052         0.277436        -1.174534
 C         2.186463        -0.678147        -1.322215
 O         1.744235         1.355146         0.149823
 H        -0.197229        -0.025817         1.176831
 H        -0.631156        -0.183829        -0.567565
 H        -0.158215        -1.525318         0.502083
 H         2.316460         0.237580         2.076258
 H         2.928157        -1.278575         1.386649
 H         4.735329         2.198678        -0.343915
 H         5.110778         1.080167         1.033456
 H         3.269926         0.881631        -2.061209
 H         1.534548        -0.435342        -2.152579
 H         2.404319        -1.738233        -1.528770
