19
Iteration:  3699
 C         0.047878        -0.587329         0.317662
 C         1.448715        -0.141446         0.059716
 C         2.588931        -0.305105         1.025506
 C         3.051104         0.842797         0.202101
 C         4.679244         1.198267         0.221093
 O         4.833291         0.183484        -0.820007
 C         3.350362         0.260376        -1.203138
 C         2.108940        -0.653646        -1.275188
 O         1.691894         1.347505        -0.020480
 H        -0.164806        -0.320536         1.323992
 H        -0.608327        -0.140555        -0.455426
 H        -0.187522        -1.675818         0.168276
 H         2.372472         0.097295         1.963559
 H         2.985927        -1.319986         0.890404
 H         5.023364         2.188877        -0.181830
 H         5.286486         0.862985         1.141477
 H         3.278306         0.885951        -2.074316
 H         1.551440        -0.283617        -2.212861
 H         2.086319        -1.671702        -1.117884
