19
Iteration:  1189charge 0 multiplicity 1
 C        -0.009860        -0.569268         0.281826
 C         1.417919        -0.131494        -0.015139
 C         2.529706        -0.378497         1.030700
 C         3.177295         0.753434         0.227326
 C         4.629615         1.248294         0.206153
 O         4.866233         0.220833        -0.857797
 C         3.412520         0.293840        -1.201062
 C         2.110882        -0.637808        -1.341243
 O         1.690033         1.344735         0.122766
 H        -0.256593        -0.280614         1.239491
 H        -0.797200        -0.204053        -0.346703
 H        -0.177321        -1.708573         0.300657
 H         2.263882        -0.038347         2.061949
 H         2.952071        -1.449712         1.113253
 H         4.796963         2.242397        -0.139088
 H         5.445425         0.961977         0.975482
 H         3.272179         1.061170        -1.915698
 H         1.540638        -0.355766        -2.279093
 H         2.174855        -1.732507        -1.341866
