19
Iteration:  1440
 C         0.006343        -0.539834         0.314210
 C         1.431863        -0.274868         0.048537
 C         2.750919        -0.340256         0.946409
 C         3.052213         0.888925         0.167197
 C         4.576592         1.185764         0.208261
 O         4.785725         0.064517        -0.778360
 C         3.296139         0.399928        -1.184575
 C         2.186746        -0.607819        -1.397618
 O         1.696212         1.377686         0.102118
 H        -0.315805        -0.167040         1.320172
 H        -0.714085        -0.013260        -0.277309
 H        -0.308480        -1.676529         0.094684
 H         2.649880        -0.203826         2.011488
 H         3.434346        -1.184091         0.947840
 H         5.077673         2.211770        -0.067746
 H         4.834856         0.805142         1.179316
 H         3.377109         1.254366        -2.014332
 H         1.425475        -0.553757        -2.161791
 H         2.543674        -1.607462        -1.270659
