19
Iteration:  4129charge 0 multiplicity 1
 C        -0.011926        -0.465007         0.176871
 C         1.447698        -0.130755         0.103553
 C         2.677412        -0.374709         1.014454
 C         3.112762         0.746013         0.167971
 C         4.522222         1.266424         0.134340
 O         4.739870         0.150875        -0.806930
 C         3.321965         0.238928        -1.216864
 C         2.227521        -0.671850        -1.312767
 O         1.757719         1.356352         0.181215
 H        -0.635764        -0.068401         1.039836
 H        -0.577754        -0.257638        -0.741576
 H        -0.026375        -1.584987         0.246574
 H         2.467902         0.042410         2.057010
 H         3.317761        -1.187417         1.146120
 H         4.739561         2.132684        -0.402157
 H         5.129496         1.268095         1.057358
 H         3.277364         1.159610        -1.859626
 H         1.508183        -0.721221        -2.054606
 H         2.593452        -1.725024        -1.113882
