19
Iteration:   648charge 0 multiplicity 1
 C         0.005815        -0.487270         0.236879
 C         1.471509        -0.162156         0.036969
 C         2.615634        -0.500058         0.941786
 C         3.160851         0.821075         0.172830
 C         4.591945         1.332517         0.154320
 O         4.771972         0.199922        -0.847015
 C         3.307019         0.291855        -1.171336
 C         2.159578        -0.690564        -1.380452
 O         1.748528         1.291709         0.275357
 H        -0.396523         0.298615         1.061625
 H        -0.430007        -0.199821        -0.682550
 H        -0.275519        -1.428986         0.515417
 H         2.403782        -0.138202         1.964494
 H         3.082181        -1.496584         0.912822
 H         4.769228         2.403364        -0.104838
 H         5.132175         1.033286         1.050811
 H         3.267053         1.046504        -1.860469
 H         1.454692        -0.443819        -2.156084
 H         2.247981        -1.725246        -1.271905
