19
Iteration:  3324charge 0 multiplicity 1
 C         0.050755        -0.561720         0.360698
 C         1.456225        -0.105676        -0.012707
 C         2.539863        -0.311768         0.986710
 C         3.115744         0.810075         0.192900
 C         4.545439         1.181902         0.182229
 O         4.819544         0.090060        -0.770228
 C         3.394786         0.256931        -1.185098
 C         2.149663        -0.633079        -1.295194
 O         1.732763         1.411304         0.011542
 H         0.009263        -0.449779         1.399327
 H        -0.828616        -0.177433        -0.126054
 H        -0.090500        -1.637209         0.118360
 H         2.156053        -0.083679         1.989391
 H         3.232722        -1.201582         0.926018
 H         4.677696         2.042989        -0.582232
 H         5.051289         1.285195         1.056423
 H         3.357773         1.181720        -1.790670
 H         1.559404        -0.383126        -2.165726
 H         2.338571        -1.755056        -1.269279
