19
Iteration:  3810charge 0 multiplicity 1
 C         0.027662        -0.565147         0.348324
 C         1.374483        -0.067834        -0.063019
 C         2.519675        -0.364207         0.984506
 C         3.152259         0.772711         0.228396
 C         4.635267         1.269239         0.127640
 O         4.821108         0.162955        -0.778284
 C         3.343511         0.292897        -1.199389
 C         2.137596        -0.681460        -1.318807
 O         1.741909         1.371313         0.100701
 H        -0.100073        -0.377989         1.398667
 H        -0.748890        -0.298279        -0.417555
 H        -0.015939        -1.680096         0.377947
 H         2.326090        -0.084042         1.957118
 H         3.151318        -1.289461         1.115132
 H         4.898500         2.214764        -0.380230
 H         5.236916         1.054885         1.128973
 H         3.425054         1.006644        -1.999573
 H         1.652744        -0.709925        -2.354922
 H         2.206989        -1.769530        -1.104934
