19
Iteration:  3718charge 0 multiplicity 1
 C         0.036335        -0.535166         0.317139
 C         1.407277        -0.114233        -0.009826
 C         2.495141        -0.326252         1.067482
 C         3.151303         0.780004         0.189669
 C         4.576261         1.206663         0.205708
 O         4.803006         0.183994        -0.878097
 C         3.348764         0.289396        -1.182684
 C         2.134806        -0.741813        -1.329605
 O         1.819857         1.392494         0.067520
 H        -0.170646        -0.388138         1.396147
 H        -0.631535        -0.364841        -0.505609
 H         0.075232        -1.632449         0.257660
 H         2.156566         0.059059         2.127682
 H         3.165472        -1.121497         1.276350
 H         4.719179         2.274477        -0.183784
 H         4.974333         1.006524         1.137150
 H         3.240924         1.089798        -1.922284
 H         1.612742        -0.554573        -2.246548
 H         2.423858        -1.808546        -1.295243
