19
Iteration:  3195charge 0 multiplicity 1
 C         0.012341        -0.457423         0.275072
 C         1.456582        -0.188158         0.022764
 C         2.702634        -0.301824         1.019088
 C         3.058190         0.843208         0.149825
 C         4.577077         1.233794         0.230161
 O         4.745137         0.152597        -0.827050
 C         3.398567         0.261127        -1.172314
 C         2.146410        -0.682392        -1.264385
 O         1.710002         1.253657         0.031785
 H        -0.438233        -0.155199         1.199432
 H        -0.412246         0.217634        -0.427695
 H        -0.278453        -1.499974         0.203147
 H         2.571470        -0.022309         2.046414
 H         3.254919        -1.158371         0.840526
 H         4.995412         2.177926        -0.012914
 H         5.049874         1.016471         1.204090
 H         3.435973         0.989855        -1.999069
 H         1.647201        -0.287609        -2.100347
 H         1.996540        -1.800665        -1.182864
