19
Iteration:  2531charge 0 multiplicity 1
 C        -0.008038        -0.508379         0.263312
 C         1.422727        -0.206786         0.030895
 C         2.677755        -0.330603         1.002803
 C         3.105477         0.798633         0.168319
 C         4.602895         1.187915         0.227849
 O         4.740486         0.129331        -0.847931
 C         3.343293         0.327092        -1.214058
 C         2.207295        -0.638332        -1.360373
 O         1.740390         1.360113         0.190947
 H        -0.365446         0.197516         0.948815
 H        -0.565966        -0.454387        -0.672382
 H        -0.294661        -1.596238         0.603745
 H         2.422569         0.168853         1.927164
 H         3.250940        -1.245910         1.060894
 H         4.643606         2.158407        -0.216339
 H         5.185041         1.001395         1.166178
 H         3.259022         0.905141        -2.075711
 H         1.499992        -0.322240        -2.197303
 H         2.383545        -1.716401        -1.283626
