19
Iteration:  1992charge 0 multiplicity 1
 C        -0.035419        -0.567154         0.322321
 C         1.439299        -0.164510        -0.008810
 C         2.526386        -0.362135         0.995112
 C         3.167627         0.760754         0.264298
 C         4.605499         1.215648         0.163162
 O         4.908154         0.181730        -0.844097
 C         3.356385         0.299637        -1.152070
 C         2.086382        -0.583611        -1.323442
 O         1.764402         1.322096         0.061794
 H        -0.511560        -0.100686         1.183690
 H        -0.850161        -0.392083        -0.413752
 H        -0.163463        -1.586534         0.465726
 H         2.165388        -0.049777         1.989200
 H         3.075749        -1.306140         1.053025
 H         4.462044         2.142550        -0.319459
 H         5.411396         1.262444         0.998788
 H         3.390747         1.194419        -1.807037
 H         1.552311        -0.251135        -2.220979
 H         2.289303        -1.676870        -1.368518
