19
Iteration:  3016
 C        -0.033579        -0.546771         0.278168
 C         1.436806        -0.198288         0.056525
 C         2.642739        -0.320558         0.990479
 C         3.152820         0.862738         0.142101
 C         4.649843         1.253004         0.230108
 O         4.762312         0.130548        -0.784706
 C         3.324837         0.277350        -1.202085
 C         2.098858        -0.683045        -1.276605
 O         1.750018         1.349188         0.080762
 H        -0.531434        -0.334773         1.223104
 H        -0.532936        -0.009350        -0.567652
 H        -0.126730        -1.568469        -0.149516
 H         2.549383        -0.011799         2.033118
 H         3.284607        -1.200193         1.034133
 H         4.936277         2.280948        -0.296652
 H         5.156778         1.070071         1.152472
 H         3.274096         1.051975        -2.076645
 H         1.693448        -0.411858        -2.318869
 H         2.158228        -1.793740        -1.217588
