19
Iteration:   728
 C         0.059085        -0.749340         0.310167
 C         1.421147        -0.160127         0.055887
 C         2.519563        -0.328139         1.040019
 C         3.151653         0.819131         0.154360
 C         4.566365         1.254629         0.198047
 O         4.801510         0.066000        -0.852860
 C         3.340272         0.274208        -1.214393
 C         2.127288        -0.498980        -1.382952
 O         1.793924         1.466326         0.167905
 H        -0.407043        -0.677411         1.347165
 H        -0.645264        -0.207389        -0.399423
 H         0.051202        -1.835913        -0.043125
 H         2.291090         0.052885         2.035575
 H         3.094823        -1.275935         1.185510
 H         4.821801         2.123701        -0.485245
 H         5.180112         1.273729         1.233979
 H         3.456164         1.039664        -2.043196
 H         1.443668        -0.251892        -2.182082
 H         2.292114        -1.609605        -1.448843
