19
Iteration:  1691charge 0 multiplicity 1
 C         0.023144        -0.567605         0.235064
 C         1.379399        -0.019930         0.076460
 C         2.484128        -0.441633         1.035681
 C         3.174140         0.695776         0.223592
 C         4.655075         1.240539         0.147068
 O         4.820303         0.247486        -0.861013
 C         3.358637         0.242293        -1.201508
 C         2.136314        -0.631596        -1.266636
 O         1.751270         1.331710         0.113578
 H        -0.519714        -0.066606         1.105238
 H        -0.435365        -0.319736        -0.649865
 H         0.197703        -1.702649         0.341739
 H         2.237248        -0.069339         2.041036
 H         2.883377        -1.445611         1.066885
 H         4.572257         2.301899        -0.366478
 H         5.294257         1.081894         0.925546
 H         3.431630         1.242384        -1.711948
 H         1.713900        -0.250201        -2.383072
 H         2.278697        -1.769550        -1.232589
