19
Iteration:  3917charge 0 multiplicity 1
 C         0.020627        -0.534842         0.215216
 C         1.440508        -0.214762         0.064139
 C         2.533989        -0.354293         1.123477
 C         3.148298         0.758936         0.182927
 C         4.535313         1.239779         0.124933
 O         4.848727         0.170419        -0.889020
 C         3.361454         0.272216        -1.189319
 C         2.165412        -0.642180        -1.328613
 O         1.762361         1.367066         0.154755
 H        -0.246959         0.040820         1.116863
 H        -0.735468        -0.091277        -0.508085
 H        -0.059439        -1.646342         0.440987
 H         1.960849         0.088667         1.933519
 H         3.007441        -1.420841         1.395679
 H         4.605792         2.207777        -0.356017
 H         5.256371         1.305845         0.974056
 H         3.311728         1.260476        -1.821720
 H         1.526286        -0.482894        -2.308584
 H         2.462553        -1.681192        -1.260494
