19
Iteration:  1933charge 0 multiplicity 1
 C        -0.040094        -0.530425         0.252480
 C         1.478442        -0.158732         0.076744
 C         2.692883        -0.364273         0.960297
 C         3.070764         0.942673         0.152458
 C         4.642017         1.191966         0.217412
 O         4.696009         0.074421        -0.789992
 C         3.312600         0.358378        -1.208879
 C         2.255060        -0.663368        -1.295084
 O         1.654542         1.333531         0.120700
 H        -0.260065        -0.451257         1.293959
 H        -0.521001         0.190036        -0.372489
 H        -0.051441        -1.588562        -0.070541
 H         2.673769        -0.202818         2.045619
 H         3.328705        -1.238329         0.720641
 H         5.116843         2.140620        -0.228770
 H         4.977339         1.065509         1.198945
 H         3.440345         1.087610        -2.135543
 H         1.465250        -0.604375        -2.139956
 H         2.599451        -1.756572        -1.292159
