19
Iteration:   855
 C         0.003779        -0.586993         0.163406
 C         1.458745        -0.259578         0.073585
 C         2.750135        -0.352411         1.052933
 C         3.153863         0.869270         0.150582
 C         4.618045         1.219501         0.261496
 O         4.666143         0.074940        -0.780588
 C         3.238499         0.426126        -1.279997
 C         2.158886        -0.615269        -1.301761
 O         1.736251         1.336978         0.121071
 H        -0.167363        -0.071598         1.239646
 H        -0.639207        -0.123701        -0.513396
 H        -0.201263        -1.590499         0.258115
 H         2.477826        -0.050312         2.042773
 H         3.397316        -1.216451         0.925572
 H         4.842704         2.176453        -0.283862
 H         5.212285         1.119608         1.074331
 H         3.262794         1.362980        -1.926811
 H         1.503775        -0.543523        -2.145277
 H         2.611569        -1.583529        -1.387300
