19
Iteration:  4136charge 0 multiplicity 1
 C        -0.063152        -0.495048         0.192155
 C         1.479601        -0.148398         0.037499
 C         2.718548        -0.363678         1.022103
 C         3.135962         0.794680         0.168739
 C         4.552322         1.286271         0.135701
 O         4.736400         0.100077        -0.800497
 C         3.295488         0.348509        -1.173308
 C         2.204301        -0.716851        -1.256043
 O         1.722732         1.354068         0.157132
 H        -0.608047        -0.109269         1.049394
 H        -0.492145        -0.172074        -0.745787
 H        -0.306517        -1.532434         0.264424
 H         2.589017        -0.068858         2.051066
 H         3.230795        -1.407898         0.871660
 H         4.834088         2.169182        -0.509762
 H         5.165863         1.199387         1.077132
 H         3.475032         1.147458        -1.851486
 H         1.489840        -0.767155        -2.103545
 H         2.723494        -1.706850        -1.154366
