19
Iteration:  4114charge 0 multiplicity 1
 C         0.030603        -0.518014         0.206575
 C         1.471877        -0.111155         0.037717
 C         2.542734        -0.342082         1.125171
 C         3.112866         0.820298         0.194728
 C         4.528841         1.262440         0.145061
 O         4.840607         0.197178        -0.874318
 C         3.359896         0.279962        -1.236313
 C         2.114027        -0.757638        -1.295003
 O         1.791906         1.311623         0.188649
 H        -0.383134        -0.069965         1.092825
 H        -0.436524        -0.197959        -0.715946
 H        -0.149153        -1.560922         0.369651
 H         2.290133         0.041028         2.096252
 H         2.898909        -1.465726         1.082620
 H         4.576134         2.320418        -0.254540
 H         5.213282         1.063471         0.997107
 H         3.451357         0.935448        -2.125746
 H         1.727811        -0.461068        -2.310051
 H         2.093578        -1.866732        -1.220714
