19
Iteration:  4010charge 0 multiplicity 1
 C         0.030679        -0.625535         0.251971
 C         1.473563        -0.150338         0.088895
 C         2.576035        -0.360122         1.001425
 C         3.132046         0.842665         0.255114
 C         4.576687         1.238741         0.064470
 O         4.825474         0.110424        -0.723551
 C         3.423431         0.270122        -1.219044
 C         2.065079        -0.528702        -1.292911
 O         1.715793         1.326559         0.048346
 H        -0.371280        -0.333314         1.275484
 H        -0.723033        -0.172889        -0.390343
 H         0.029478        -1.719974         0.153552
 H         2.197179        -0.139963         2.071552
 H         3.122882        -1.217112         0.953022
 H         4.715213         2.159936        -0.604972
 H         5.206908         1.478963         0.956441
 H         3.550002         1.129139        -1.832423
 H         1.345768        -0.277458        -2.051042
 H         2.267338        -1.661128        -1.352064
