19
Iteration:  1433charge 0 multiplicity 1
 C         0.011582        -0.551659         0.336808
 C         1.428742        -0.235159         0.032499
 C         2.671437        -0.340188         0.974308
 C         3.105507         0.862276         0.099927
 C         4.545020         1.180499         0.209537
 O         4.783704         0.080019        -0.790745
 C         3.379154         0.394508        -1.193137
 C         2.184064        -0.609887        -1.360411
 O         1.654042         1.362842         0.115172
 H        -0.196553        -0.460095         1.469913
 H        -0.718650         0.071936        -0.203063
 H        -0.221096        -1.539209         0.178595
 H         2.572363         0.110140         2.032768
 H         3.307656        -1.269954         0.849783
 H         5.011740         2.084820        -0.127515
 H         5.029578         0.776970         1.265234
 H         3.406441         1.171843        -1.870741
 H         1.537796        -0.338677        -2.233686
 H         2.682607        -1.616452        -1.575800
