19
Iteration:  4886
 C        -0.014665        -0.546800         0.219172
 C         1.483256        -0.156805         0.078593
 C         2.604633        -0.343064         1.062927
 C         3.138008         0.814471         0.134017
 C         4.573246         1.256829         0.104752
 O         4.862005         0.114219        -0.723564
 C         3.340396         0.306507        -1.236815
 C         2.069811        -0.641881        -1.298899
 O         1.719024         1.334523         0.114768
 H        -0.380731        -0.567079         1.270675
 H        -0.518429         0.143880        -0.430105
 H        -0.118761        -1.469937        -0.259625
 H         2.746345         0.036858         2.120191
 H         2.973719        -1.331052         1.013046
 H         4.779581         2.282945        -0.296764
 H         5.098714         1.008091         1.025896
 H         3.496709         1.025034        -2.042403
 H         1.416498        -0.357077        -2.050101
 H         2.202710        -1.741026        -1.198911
