19
Iteration:   212charge 0 multiplicity 1
 C         0.017065        -0.641568         0.317761
 C         1.422568        -0.139557        -0.024721
 C         2.599571        -0.337684         1.106210
 C         3.195644         0.736091         0.248790
 C         4.551938         1.228368         0.232728
 O         4.813159         0.178396        -0.918916
 C         3.307690         0.328584        -1.202009
 C         2.113681        -0.599635        -1.309123
 O         1.807151         1.381275         0.018205
 H        -0.119357        -0.606243         1.332676
 H        -0.874869        -0.019779        -0.063005
 H        -0.166934        -1.649368         0.005412
 H         2.200832         0.122948         1.991680
 H         2.928940        -1.366703         1.222612
 H         4.736892         2.311191        -0.024239
 H         5.155916         0.819447         1.054751
 H         3.223102         1.158895        -1.806863
 H         1.453010        -0.384595        -2.234732
 H         2.374798        -1.749698        -1.337717
