19
Iteration:   157
 C        -0.019088        -0.516718         0.259251
 C         1.470367        -0.179015         0.079781
 C         2.724891        -0.337867         1.024968
 C         3.073771         0.853182         0.194586
 C         4.607349         1.197915         0.179944
 O         4.700101         0.109702        -0.798217
 C         3.348021         0.415124        -1.256661
 C         2.134724        -0.607966        -1.338216
 O         1.749158         1.248589         0.159835
 H        -0.647137        -0.108870         0.915605
 H        -0.451701        -0.417382        -0.808265
 H        -0.022761        -1.598268         0.379269
 H         2.482458        -0.074613         2.040264
 H         3.276203        -1.243614         0.998384
 H         4.891376         2.170018        -0.338586
 H         5.268027         1.063746         1.000424
 H         3.299463         1.198406        -1.957450
 H         1.412277        -0.441422        -2.213870
 H         2.547792        -1.695007        -1.346411
