19
Iteration:  2684
 C        -0.048486        -0.551210         0.247937
 C         1.435088        -0.110073         0.045692
 C         2.663511        -0.375289         0.975767
 C         3.112870         0.848959         0.135493
 C         4.517077         1.245365         0.167412
 O         4.776815         0.091151        -0.786948
 C         3.384340         0.293508        -1.188169
 C         2.140886        -0.660805        -1.283216
 O         1.775214         1.366738         0.144640
 H        -0.495479        -0.052304         1.103189
 H        -0.640376        -0.141438        -0.602839
 H         0.022361        -1.685591         0.477581
 H         2.584017        -0.189726         2.029502
 H         3.350211        -1.168512         0.923428
 H         4.844315         2.167068        -0.296247
 H         5.157816         1.106410         1.095914
 H         3.270337         0.978190        -2.090082
 H         1.611947        -0.366121        -2.213731
 H         2.325226        -1.776800        -1.185761
