19
Iteration:  3386charge 0 multiplicity 1
 C         0.016075        -0.461147         0.225579
 C         1.465057        -0.146575         0.060919
 C         2.664548        -0.377071         0.996768
 C         3.118218         0.829075         0.167215
 C         4.632599         1.282077         0.184234
 O         4.676399         0.111972        -0.807968
 C         3.291630         0.289641        -1.150377
 C         2.259738        -0.730500        -1.280512
 O         1.700864         1.355547         0.079550
 H        -0.348467         0.160994         1.074176
 H        -0.531355        -0.056231        -0.693857
 H        -0.080020        -1.569725         0.422770
 H         2.378115        -0.311556         2.006756
 H         3.225118        -1.360588         1.053425
 H         4.975791         2.115925        -0.420157
 H         5.023144         1.193993         1.292968
 H         3.130020         1.004756        -1.935130
 H         1.627292        -0.651153        -2.199505
 H         2.514260        -1.749072        -1.219931
