19
Iteration:  4293
 C        -0.044091        -0.489671         0.281563
 C         1.406063        -0.092123         0.051617
 C         2.496691        -0.395244         0.993240
 C         3.163775         0.754117         0.198146
 C         4.582414         1.282513         0.171297
 O         4.847021         0.197108        -0.881743
 C         3.418131         0.301314        -1.215345
 C         2.133089        -0.770500        -1.249324
 O         1.761454         1.387360         0.113835
 H        -0.416358        -0.163787         1.235804
 H        -0.657617        -0.395377        -0.621196
 H         0.149944        -1.592636         0.432273
 H         2.262487        -0.106934         2.059585
 H         2.841869        -1.444539         1.051547
 H         4.797994         2.312962        -0.166661
 H         5.202385         1.126816         1.106565
 H         3.339393         0.865974        -2.165426
 H         1.700799        -0.777676        -2.314502
 H         2.499933        -1.770681        -0.935770
