19
Iteration:  4825charge 0 multiplicity 1
 C         0.009702        -0.471067         0.311665
 C         1.423361        -0.197138        -0.014267
 C         2.679074        -0.347067         1.042675
 C         3.124164         0.808732         0.165800
 C         4.612353         1.181841         0.257727
 O         4.764711         0.129269        -0.865369
 C         3.391486         0.405287        -1.199479
 C         2.161440        -0.622270        -1.305378
 O         1.673877         1.263676         0.057532
 H        -0.502237         0.106216         1.085603
 H        -0.732303        -0.257877        -0.496414
 H        -0.196623        -1.514181         0.605036
 H         2.482291         0.255984         1.884186
 H         3.239820        -1.321973         1.073345
 H         4.938463         2.212789         0.017625
 H         5.080486         0.811223         1.166008
 H         3.285124         1.192649        -1.962235
 H         1.487463        -0.699770        -2.229924
 H         2.409508        -1.691672        -1.155469
