19
Iteration:  3529charge 0 multiplicity 1
 C        -0.007886        -0.539809         0.240616
 C         1.465440        -0.128503         0.044855
 C         2.651241        -0.269391         1.098074
 C         3.131153         0.753220         0.160419
 C         4.586738         1.309829         0.141226
 O         4.809147         0.154230        -0.756641
 C         3.356923         0.161120        -1.185404
 C         2.071729        -0.595472        -1.349088
 O         1.761825         1.286074         0.070481
 H        -0.320125        -0.378207         1.247281
 H        -0.647111        -0.174666        -0.570415
 H         0.006851        -1.671997         0.112260
 H         2.366568         0.061731         2.025243
 H         3.074141        -1.270922         1.284335
 H         4.784337         2.327712        -0.364715
 H         5.016711         1.153232         1.201637
 H         3.416437         0.961178        -1.915915
 H         1.420699        -0.213352        -2.065207
 H         2.014749        -1.650839        -1.610680
