19
Iteration:  1076
 C         0.004209        -0.576221         0.324694
 C         1.444894        -0.184432        -0.004891
 C         2.679132        -0.362776         0.973022
 C         3.110974         0.857791         0.168440
 C         4.573477         1.246162         0.293215
 O         4.782144         0.100451        -0.796445
 C         3.333389         0.339643        -1.242788
 C         2.178290        -0.612944        -1.414749
 O         1.654843         1.334304         0.150912
 H        -0.226432        -0.376487         1.367810
 H        -0.601368         0.158392        -0.333749
 H        -0.260948        -1.628680         0.104438
 H         2.493096        -0.082009         2.028119
 H         3.362127        -1.208270         0.957039
 H         4.942438         2.143002        -0.263028
 H         5.153187         1.001494         1.188087
 H         3.419185         1.143196        -1.955130
 H         1.740402        -0.443660        -2.355294
 H         2.415839        -1.668401        -1.398830
