19
Iteration:   241charge 0 multiplicity 1
 C        -0.013965        -0.518970         0.318796
 C         1.397139        -0.149274         0.053912
 C         2.595131        -0.400924         0.957548
 C         3.158429         0.792313         0.207139
 C         4.627059         1.268036         0.101615
 O         4.835035         0.243340        -0.819668
 C         3.366862         0.244974        -1.169529
 C         2.144547        -0.680559        -1.341578
 O         1.719212         1.287927         0.181186
 H        -0.380600        -0.349707         1.352851
 H        -0.677933         0.136200        -0.329537
 H        -0.213329        -1.600443        -0.007829
 H         2.346796        -0.006078         1.956831
 H         2.972957        -1.407632         0.941510
 H         4.651544         2.299890        -0.375686
 H         5.318923         1.170307         0.881408
 H         3.297579         1.081347        -1.949475
 H         1.671302        -0.312060        -2.210131
 H         2.174813        -1.698441        -1.401326
