19
Iteration:  3788charge 0 multiplicity 1
 C        -0.005678        -0.485187         0.232484
 C         1.439314        -0.213924         0.113088
 C         2.610066        -0.366296         1.066027
 C         3.067564         0.826367         0.107197
 C         4.509403         1.292977         0.174467
 O         4.836000         0.098672        -0.823394
 C         3.323451         0.292779        -1.280484
 C         2.218174        -0.660973        -1.265118
 O         1.775896         1.352264         0.153892
 H        -0.439269        -0.082534         1.118591
 H        -0.362393        -0.291408        -0.796411
 H        -0.208692        -1.577876         0.313134
 H         2.504521         0.020780         2.017138
 H         3.124995        -1.371847         1.181435
 H         4.744772         2.192253        -0.407786
 H         5.206633         1.151092         1.114059
 H         3.286096         1.079079        -2.018638
 H         1.467579        -0.327156        -2.071660
 H         2.268143        -1.754705        -1.334293
