19
Iteration:  1385
 C        -0.031797        -0.601959         0.304089
 C         1.380522        -0.166087         0.088758
 C         2.591427        -0.371657         0.970728
 C         3.120310         0.812869         0.207841
 C         4.543230         1.206070         0.202687
 O         4.823241         0.116979        -0.824054
 C         3.385231         0.311220        -1.195669
 C         2.207475        -0.597944        -1.328347
 O         1.792597         1.408382         0.095580
 H        -0.383938        -0.666085         1.319710
 H        -0.676321         0.030628        -0.286360
 H        -0.232985        -1.719337        -0.049829
 H         2.424128        -0.136649         2.005537
 H         3.113427        -1.305512         0.741406
 H         4.556477         2.265514        -0.406494
 H         5.236647         1.289285         1.051022
 H         3.346373         1.109490        -2.052110
 H         1.539113        -0.248790        -2.110318
 H         2.200507        -1.651291        -1.381405
