19
Iteration:  2469
 C        -0.017960        -0.571960         0.325083
 C         1.485828        -0.152580         0.029506
 C         2.563781        -0.368554         1.183773
 C         3.074332         0.796271         0.145552
 C         4.598659         1.228893         0.163478
 O         4.862152         0.079545        -0.826798
 C         3.300278         0.325249        -1.220448
 C         2.149123        -0.551007        -1.418068
 O         1.755142         1.315502         0.057024
 H        -0.227004        -0.594500         1.403682
 H        -0.728332         0.068919        -0.263860
 H         0.056652        -1.592446         0.135888
 H         2.259945         0.282374         2.061916
 H         3.054977        -1.413108         1.363430
 H         4.801105         2.278092        -0.309576
 H         5.126215         1.191474         1.089096
 H         3.479442         1.267903        -1.865895
 H         1.477846        -0.167776        -2.144895
 H         2.304189        -1.641214        -1.491982
