19
Iteration:  4173
 C         0.050565        -0.575946         0.324702
 C         1.431387        -0.146395         0.009292
 C         2.623440        -0.279459         1.090603
 C         3.157193         0.851608         0.185764
 C         4.609142         1.231157         0.169997
 O         4.821388         0.092846        -0.815301
 C         3.375813         0.334424        -1.190318
 C         2.127161        -0.687069        -1.384729
 O         1.634883         1.308521         0.066916
 H        -0.202989        -0.142489         1.317082
 H        -0.614422        -0.012332        -0.362194
 H        -0.176523        -1.652017         0.155276
 H         2.404194         0.157858         2.122130
 H         2.953361        -1.288566         1.233082
 H         4.858211         2.201358        -0.129388
 H         5.086373         1.024204         1.128530
 H         3.191768         1.113034        -1.959374
 H         1.678931        -0.320969        -2.301105
 H         2.352679        -1.762926        -1.523252
