19
Iteration:  3254charge 0 multiplicity 1
 C         0.024991        -0.484352         0.258718
 C         1.421994        -0.129170        -0.011046
 C         2.577967        -0.377683         1.060601
 C         3.126143         0.812448         0.235243
 C         4.636792         1.259065         0.156853
 O         4.823538         0.167281        -0.825868
 C         3.307204         0.297229        -1.172877
 C         2.121677        -0.733555        -1.271741
 O         1.765455         1.342740         0.066510
 H        -0.469967         0.131789         1.099260
 H        -0.534348        -0.505515        -0.732622
 H        -0.048843        -1.583358         0.389528
 H         2.373467         0.004352         2.113657
 H         3.052969        -1.435799         0.979221
 H         4.787471         2.254093        -0.321826
 H         5.329084         1.024575         1.063446
 H         3.161619         1.025614        -1.984351
 H         1.468156        -0.529685        -2.188472
 H         2.187210        -1.788644        -1.163957
