19
Iteration:   920
 C         0.054241        -0.597064         0.349215
 C         1.446362        -0.178383         0.009183
 C         2.499199        -0.385930         1.066591
 C         3.115553         0.749712         0.232992
 C         4.579407         1.207957         0.249611
 O         4.830196         0.191210        -0.867680
 C         3.356335         0.354378        -1.163377
 C         2.146463        -0.595869        -1.367500
 O         1.775795         1.354888        -0.011957
 H        -0.244611        -0.319255         1.471558
 H        -0.781985        -0.194266        -0.177384
 H         0.056233        -1.645178         0.086652
 H         2.257155        -0.216433         2.084385
 H         2.983845        -1.323381         0.865448
 H         4.705648         2.279034        -0.369315
 H         5.170454         1.067538         1.103838
 H         3.326566         1.259045        -1.832823
 H         1.524026        -0.159221        -2.116899
 H         2.268538        -1.660435        -1.393751
