19
Iteration:  2035charge 0 multiplicity 1
 C         0.019560        -0.438612         0.251053
 C         1.403646        -0.202781         0.060101
 C         2.672304        -0.343397         0.969912
 C         3.064753         0.792306         0.139725
 C         4.565316         1.151080         0.232790
 O         4.761312         0.150804        -0.857175
 C         3.317229         0.391493        -1.288006
 C         2.254587        -0.668408        -1.257474
 O         1.690118         1.292585         0.197330
 H        -0.268742         0.360771         0.945622
 H        -0.529786        -0.219234        -0.752830
 H        -0.157941        -1.425166         0.472530
 H         2.655891         0.031903         2.015534
 H         3.308891        -1.219839         0.929291
 H         4.920409         2.099493        -0.088756
 H         4.975082         0.768733         1.307619
 H         3.310116         1.269049        -2.104567
 H         1.612842        -0.735073        -2.174826
 H         2.702869        -1.724766        -1.115906
