19
Iteration:  1600charge 0 multiplicity 1
 C        -0.006645        -0.650989         0.303306
 C         1.391666        -0.152344         0.016035
 C         2.529847        -0.375672         1.026239
 C         3.080823         0.819194         0.182340
 C         4.658408         1.292945         0.141642
 O         4.822304         0.100865        -0.743431
 C         3.442990         0.335001        -1.214380
 C         2.056305        -0.575640        -1.375783
 O         1.820386         1.362297         0.144602
 H        -0.205874        -0.615739         1.279288
 H        -0.838213        -0.135254        -0.167330
 H        -0.019261        -1.619910         0.019805
 H         2.129628        -0.159945         2.021065
 H         3.090115        -1.331397         1.032628
 H         4.582322         2.132425        -0.468602
 H         5.381979         1.251395         1.004295
 H         3.446370         0.965834        -2.036371
 H         1.565415        -0.085575        -2.291192
 H         2.077136        -1.638665        -1.586396
