19
Iteration:  1841charge 0 multiplicity 1
 C         0.021151        -0.478991         0.187654
 C         1.499395        -0.354118         0.027483
 C         2.690290        -0.341384         0.968560
 C         3.081788         0.890166         0.185508
 C         4.598785         1.189897         0.186965
 O         4.680481         0.159941        -0.796920
 C         3.316471         0.336186        -1.222346
 C         2.181806        -0.699902        -1.322503
 O         1.715641         1.373993         0.240606
 H        -0.336775         0.377116         0.884869
 H        -0.421445        -0.218494        -0.852916
 H        -0.508920        -1.405482         0.552862
 H         2.442674         0.073326         1.979564
 H         3.437257        -1.179137         1.041957
 H         5.088309         2.107215        -0.233557
 H         5.211139         0.982937         1.126500
 H         3.391027         1.054615        -2.077457
 H         1.531853        -0.645049        -2.125873
 H         2.472697        -1.712226        -1.352409
