19
Iteration:  3667
 C         0.005013        -0.541274         0.316361
 C         1.434987        -0.177755         0.059612
 C         2.655237        -0.294387         1.016880
 C         3.074768         0.898071         0.123524
 C         4.639319         1.244738         0.160797
 O         4.708629         0.042215        -0.711711
 C         3.312678         0.346504        -1.254130
 C         2.271064        -0.660779        -1.409185
 O         1.677391         1.307791         0.134509
 H        -0.276425        -0.174656         1.298211
 H        -0.538731         0.052584        -0.466442
 H        -0.256653        -1.629121         0.297625
 H         2.607009         0.055125         1.981214
 H         3.292476        -1.218379         1.163844
 H         4.903073         2.166880        -0.382858
 H         5.189113         1.134197         1.175315
 H         3.428054         1.013005        -2.111415
 H         1.686085        -0.601387        -2.420198
 H         2.393868        -1.700123        -1.290408
