19
Iteration:  1960charge 0 multiplicity 1
 C         0.034737        -0.571316         0.239165
 C         1.479293        -0.161427         0.022051
 C         2.612523        -0.324644         0.983306
 C         3.121608         0.878802         0.192186
 C         4.587775         1.200482         0.149620
 O         4.756070         0.098134        -0.753636
 C         3.318009         0.318721        -1.206360
 C         2.135385        -0.643162        -1.332529
 O         1.741704         1.338143         0.172070
 H        -0.243810        -0.432039         1.336930
 H        -0.562487        -0.031115        -0.535602
 H        -0.082423        -1.650575         0.018171
 H         2.315473         0.140186         1.930701
 H         3.238314        -1.252053         0.942059
 H         4.759431         2.166658        -0.295307
 H         5.270759         1.269927         1.089318
 H         3.437952         0.994803        -2.011281
 H         1.465550        -0.363100        -2.132456
 H         2.291339        -1.711898        -1.428519
