19
Iteration:  2437
 C        -0.036463        -0.502252         0.236916
 C         1.435616        -0.135041         0.011904
 C         2.707352        -0.409715         0.941671
 C         3.082819         0.945594         0.152260
 C         4.624287         1.289904         0.163300
 O         4.798772         0.076366        -0.799873
 C         3.321912         0.232551        -1.127905
 C         2.141365        -0.665694        -1.294139
 O         1.713743         1.343719         0.181737
 H        -0.232290        -0.490118         1.363922
 H        -0.916744        -0.028772        -0.360543
 H        -0.165605        -1.485230        -0.162011
 H         2.537844        -0.201634         2.041570
 H         3.415282        -1.322881         0.841470
 H         4.932141         2.198914        -0.472207
 H         5.184527         1.156835         1.054199
 H         3.192078         1.084661        -1.941767
 H         1.669005        -0.459948        -2.240337
 H         2.188136        -1.753830        -1.065577
