19
Iteration:  1649charge 0 multiplicity 1
 C         0.063561        -0.471814         0.248909
 C         1.517744        -0.231343         0.030213
 C         2.634177        -0.362377         1.015250
 C         3.122979         0.823045         0.168223
 C         4.616616         1.112394         0.255809
 O         4.656809         0.188028        -0.819194
 C         3.306746         0.398349        -1.255784
 C         2.255305        -0.650969        -1.322866
 O         1.680579         1.327673         0.137341
 H        -0.348339         0.210750         1.131758
 H        -0.607047        -0.248776        -0.625518
 H        -0.160818        -1.645725         0.480689
 H         2.436488         0.058154         2.015037
 H         3.141752        -1.330164         1.073673
 H         4.922415         2.199920        -0.121551
 H         5.144634         0.642699         1.084498
 H         3.168344         1.171920        -2.144352
 H         1.478212        -0.486752        -2.154650
 H         2.545845        -1.746621        -1.333712
