19
Iteration:  4775
 C         0.039943        -0.544121         0.268156
 C         1.430843        -0.102119        -0.039378
 C         2.520054        -0.352400         1.024815
 C         3.174053         0.796118         0.199323
 C         4.599423         1.224465         0.195636
 O         4.809206         0.156522        -0.828942
 C         3.277996         0.292626        -1.185658
 C         2.174574        -0.636016        -1.309053
 O         1.804604         1.321187         0.113239
 H        -0.500361         0.094347         1.124056
 H        -0.766027        -0.531435        -0.463611
 H         0.037995        -1.607338         0.691760
 H         2.123341        -0.187701         2.047547
 H         3.043015        -1.295950         0.798822
 H         4.685627         2.130284        -0.381298
 H         5.204178         1.171057         1.180880
 H         3.105847         1.159697        -1.870497
 H         1.679722        -0.556487        -2.293791
 H         2.298119        -1.678089        -1.058556
