19
Iteration:  1464charge 0 multiplicity 1
 C         0.090984        -0.512791         0.209465
 C         1.439138        -0.126746         0.033137
 C         2.621687        -0.392246         0.925122
 C         3.143837         0.812034         0.167725
 C         4.626524         1.240676         0.191911
 O         4.713013         0.160847        -0.810953
 C         3.363304         0.340094        -1.182339
 C         2.142099        -0.669851        -1.286713
 O         1.678713         1.305643         0.202456
 H        -0.401119         0.067350         1.095955
 H        -0.591441        -0.304052        -0.536527
 H        -0.006730        -1.606779         0.304311
 H         2.518411        -0.142706         2.018220
 H         3.126854        -1.381403         0.976111
 H         4.854782         2.245562        -0.285356
 H         5.281416         0.922216         1.114193
 H         3.312470         1.035229        -2.065253
 H         1.472926        -0.361169        -2.090069
 H         2.358573        -1.748137        -1.319596
