19
Iteration:   804charge 0 multiplicity 1
 C        -0.013638        -0.514534         0.338761
 C         1.397526        -0.166367         0.009162
 C         2.563997        -0.430653         1.001671
 C         3.185592         0.717685         0.247980
 C         4.546978         1.236226         0.254214
 O         4.871925         0.299063        -0.910169
 C         3.331011         0.355135        -1.163756
 C         2.048018        -0.734004        -1.342366
 O         1.852381         1.358285         0.040046
 H        -0.452272        -0.113700         1.227764
 H        -0.693731        -0.291641        -0.532920
 H        -0.001880        -1.618529         0.357298
 H         2.145143        -0.112307         1.971904
 H         3.108868        -1.426351         1.031320
 H         4.641447         2.246569        -0.101472
 H         5.315590         0.986801         1.080174
 H         3.137458         1.249170        -1.719189
 H         1.511973        -0.714376        -2.289588
 H         2.320553        -1.795993        -1.084620
