19
Iteration:  3020charge 0 multiplicity 1
 C        -0.038659        -0.553646         0.274265
 C         1.428897        -0.208629         0.042027
 C         2.633171        -0.327461         1.027770
 C         3.157713         0.870552         0.137331
 C         4.647041         1.257694         0.197731
 O         4.793324         0.120915        -0.812860
 C         3.345598         0.263488        -1.196455
 C         2.121234        -0.649686        -1.260347
 O         1.731687         1.362615         0.091449
 H        -0.551974        -0.332496         1.220820
 H        -0.541970        -0.106020        -0.631248
 H        -0.289514        -1.614468        -0.157441
 H         2.520244         0.043933         2.040033
 H         3.262742        -1.263996         0.964992
 H         4.793443         2.242549        -0.209124
 H         5.163116         1.084883         1.236958
 H         3.365638         0.989542        -1.980765
 H         1.604630        -0.388662        -2.215882
 H         2.063899        -1.736608        -1.218435
