19
Iteration:  2827
 C         0.048837        -0.491740         0.329893
 C         1.452990        -0.084568         0.055093
 C         2.554235        -0.364040         0.975745
 C         3.068524         0.858786         0.163097
 C         4.618623         1.220553         0.154469
 O         4.800479         0.117475        -0.780171
 C         3.367626         0.264665        -1.163985
 C         2.220761        -0.727261        -1.339038
 O         1.666371         1.351720         0.067037
 H        -0.354145        -0.283688         1.327759
 H        -0.774478         0.071782        -0.149204
 H        -0.093275        -1.567762         0.155387
 H         2.399525        -0.272443         2.083226
 H         3.265666        -1.156231         0.863158
 H         4.825139         2.209699        -0.379767
 H         5.161792         1.157850         1.142332
 H         3.269182         1.138537        -1.944436
 H         1.640370        -0.603131        -2.269719
 H         2.537558        -1.835389        -1.349602
