19
Iteration:  1221charge 0 multiplicity 1
 C         0.019692        -0.617400         0.244378
 C         1.432691        -0.132090         0.018486
 C         2.677093        -0.392692         1.016907
 C         3.114529         0.786971         0.186421
 C         4.588527         1.280150         0.172120
 O         4.782418         0.107195        -0.729096
 C         3.330651         0.338039        -1.227323
 C         2.089787        -0.614360        -1.334130
 O         1.765382         1.408528         0.114022
 H        -0.230420        -0.516459         1.258357
 H        -0.794352        -0.101132        -0.324478
 H        -0.162104        -1.782121         0.026446
 H         2.515288        -0.141978         2.090998
 H         3.129768        -1.421147         0.846312
 H         4.681496         2.214340        -0.287589
 H         5.267848         1.065015         1.016424
 H         3.410029         1.085412        -2.003785
 H         1.477585        -0.267061        -2.196649
 H         2.234166        -1.683191        -1.330713
