19
Iteration:  4174
 C         0.054468        -0.577894         0.325336
 C         1.421443        -0.147823         0.020340
 C         2.616169        -0.276916         1.090208
 C         3.168976         0.853800         0.189697
 C         4.597086         1.228896         0.179671
 O         4.826141         0.088321        -0.817421
 C         3.373814         0.334017        -1.200654
 C         2.131913        -0.684618        -1.388438
 O         1.644615         1.310918         0.060912
 H        -0.185416        -0.170674         1.332098
 H        -0.648092        -0.015139        -0.364144
 H        -0.180513        -1.681927         0.168309
 H         2.410195         0.146843         2.108804
 H         2.964015        -1.281880         1.269449
 H         4.847231         2.224207        -0.119614
 H         5.069034         1.042683         1.115005
 H         3.177864         1.141250        -1.969995
 H         1.652482        -0.322314        -2.349920
 H         2.323971        -1.745697        -1.509558
