19
Iteration:  3186
 C        -0.035915        -0.469158         0.240583
 C         1.452136        -0.186156         0.136602
 C         2.724580        -0.335014         1.004669
 C         3.103418         0.912040         0.139141
 C         4.546908         1.243039         0.217017
 O         4.816535         0.087536        -0.815585
 C         3.408756         0.294495        -1.187265
 C         2.104683        -0.706915        -1.284551
 O         1.671570         1.311943         0.054653
 H        -0.366893        -0.226105         1.315423
 H        -0.590519         0.093649        -0.523401
 H        -0.185300        -1.534413        -0.017743
 H         2.539196         0.011732         2.052423
 H         3.434109        -1.121148         0.852903
 H         4.811979         2.233832        -0.107941
 H         5.029313         0.884591         1.239107
 H         3.347069         0.847366        -2.056384
 H         1.684304        -0.316935        -2.141068
 H         2.158787        -1.811562        -1.458905
