19
Iteration:  3656charge 0 multiplicity 1
 C         0.078712        -0.504083         0.313087
 C         1.489832        -0.184000         0.023904
 C         2.599067        -0.385748         1.028801
 C         3.082783         0.907284         0.119196
 C         4.550921         1.235321         0.105892
 O         4.662469         0.082401        -0.699597
 C         3.402379         0.316175        -1.231418
 C         2.195962        -0.688832        -1.339276
 O         1.724163         1.347150         0.152464
 H        -0.258634        -0.108205         1.256115
 H        -0.602257        -0.057997        -0.488110
 H        -0.058979        -1.607598         0.172384
 H         2.186323         0.000572         1.894311
 H         3.342045        -1.223303         0.883027
 H         4.818115         2.137651        -0.464481
 H         5.214108         1.181889         1.061060
 H         3.456762         1.054841        -2.058030
 H         1.659666        -0.456197        -2.366995
 H         2.582503        -1.668125        -1.197108
