19
Iteration:  4278charge 0 multiplicity 1
 C         0.018292        -0.531972         0.221341
 C         1.430893        -0.074646        -0.041654
 C         2.585212        -0.353424         1.023459
 C         3.096993         0.810525         0.200579
 C         4.616021         1.238288         0.124973
 O         4.849791         0.197335        -0.827820
 C         3.319568         0.189487        -1.155671
 C         2.170596        -0.676224        -1.258053
 O         1.738494         1.319311         0.147078
 H        -0.396939         0.117788         1.054100
 H        -0.591103        -0.320329        -0.627609
 H        -0.157996        -1.517389         0.556301
 H         2.273671        -0.068522         2.047455
 H         3.229427        -1.235553         0.961151
 H         4.604784         2.200187        -0.416814
 H         5.313606         1.148653         1.040210
 H         3.112942         1.016999        -1.805768
 H         1.509297        -0.543169        -2.054802
 H         2.172423        -1.806531        -1.070717
