19
Iteration:  4107charge 0 multiplicity 1
 C         0.023480        -0.531184         0.241989
 C         1.480776        -0.167475        -0.017513
 C         2.504120        -0.359572         1.094522
 C         3.153657         0.775531         0.198602
 C         4.594715         1.286156         0.150545
 O         4.875148         0.236952        -0.900358
 C         3.360144         0.251216        -1.181004
 C         2.092181        -0.731466        -1.268495
 O         1.746307         1.351973         0.149932
 H        -0.445392         0.020031         1.135371
 H        -0.606266        -0.190537        -0.599312
 H        -0.248940        -1.607989         0.323197
 H         2.225813        -0.039595         2.143995
 H         2.796133        -1.363477         1.149550
 H         4.826659         2.214607        -0.255383
 H         5.208193         1.147230         1.075122
 H         3.459756         0.948704        -2.012102
 H         1.481977        -0.478924        -2.078123
 H         2.185280        -1.865918        -1.328062
