19
Iteration:   959
 C        -0.115105        -0.468690         0.218909
 C         1.432663        -0.277551         0.076351
 C         2.619736        -0.428609         0.981754
 C         3.083527         0.848004         0.124586
 C         4.660271         1.222584         0.226789
 O         4.782123         0.180459        -0.840484
 C         3.355877         0.446501        -1.303561
 C         2.248306        -0.698220        -1.261557
 O         1.714937         1.333578         0.216879
 H        -0.482958        -0.000067         1.090000
 H        -0.572203        -0.062911        -0.701544
 H        -0.321734        -1.605441         0.368258
 H         2.650779        -0.116445         2.084976
 H         3.201959        -1.400389         0.935178
 H         5.027682         2.086453        -0.107411
 H         5.025286         0.888288         1.298833
 H         3.081722         1.155266        -2.099514
 H         1.534533        -0.703956        -2.175860
 H         2.804684        -1.707568        -1.300259
