19
Iteration:  3845charge 0 multiplicity 1
 C         0.049465        -0.571129         0.415069
 C         1.437473        -0.196821        -0.002989
 C         2.626797        -0.319862         1.059009
 C         3.075356         0.837422         0.136547
 C         4.617720         1.195735         0.209961
 O         4.732754         0.103791        -0.739462
 C         3.351028         0.365810        -1.289831
 C         2.212193        -0.594641        -1.362179
 O         1.688251         1.306416        -0.002873
 H        -0.275481        -0.196580         1.391192
 H        -0.600174         0.053683        -0.179741
 H        -0.096471        -1.580466         0.121432
 H         2.392692         0.173211         2.000694
 H         3.300243        -1.147911         1.030436
 H         5.191786         2.104957        -0.060410
 H         5.080917         0.798905         1.183250
 H         3.273514         1.134598        -2.051346
 H         1.586067        -0.281133        -2.139444
 H         2.293931        -1.741756        -1.237991
