19
Iteration:  1828charge 0 multiplicity 1
 C         0.024602        -0.523498         0.180186
 C         1.513617        -0.227479         0.055763
 C         2.749430        -0.387661         1.089201
 C         3.066545         0.916878         0.191561
 C         4.608335         1.200892         0.201290
 O         4.671627         0.083659        -0.821341
 C         3.304431         0.359188        -1.218803
 C         2.201587        -0.665931        -1.342289
 O         1.677155         1.384962         0.135254
 H        -0.242745         0.174994         1.005305
 H        -0.606013        -0.192472        -0.808841
 H        -0.183635        -1.508726         0.512438
 H         2.517743        -0.180574         2.137465
 H         3.245190        -1.336994         0.948678
 H         4.819989         2.154431        -0.190419
 H         5.219616         0.812500         1.152351
 H         3.184157         1.008349        -2.037517
 H         1.698855        -0.345119        -2.130071
 H         2.466385        -1.670293        -1.320749
