19
Iteration:    82
 C         0.073782        -0.432077         0.316567
 C         1.536543        -0.254286        -0.066834
 C         2.692362        -0.331835         0.943890
 C         3.045868         0.894944         0.222446
 C         4.533516         1.137156         0.238592
 O         4.787124         0.181676        -0.885046
 C         3.329030         0.381959        -1.192274
 C         2.161146        -0.700808        -1.277203
 O         1.652666         1.259360         0.155102
 H        -0.230577         0.041831         1.307063
 H        -0.608833         0.198868        -0.455000
 H        -0.283114        -1.484129         0.287265
 H         2.304980        -0.140763         1.951672
 H         3.505010        -1.068316         0.921657
 H         4.844036         2.157048         0.001109
 H         4.990705         0.780496         1.158393
 H         3.316638         1.031104        -2.189299
 H         1.566482        -0.594372        -2.250313
 H         2.417156        -1.837863        -1.104665
