19
Iteration:  3209
 C         0.029828        -0.428444         0.289641
 C         1.469374        -0.198376         0.031581
 C         2.587952        -0.385649         1.030578
 C         3.146368         0.825132         0.164448
 C         4.597286         1.213779         0.206582
 O         4.806897         0.196720        -0.780912
 C         3.307803         0.298681        -1.220135
 C         2.130662        -0.727925        -1.310310
 O         1.712163         1.313439         0.031428
 H        -0.068664         0.014745         1.358521
 H        -0.638229         0.064275        -0.441931
 H        -0.220062        -1.514403         0.277182
 H         2.181637         0.080454         1.991850
 H         3.196785        -1.311654         1.074469
 H         4.847238         2.224534        -0.175877
 H         5.191880         0.943587         1.193893
 H         3.177051         1.029337        -1.964161
 H         1.528939        -0.669787        -2.203084
 H         2.594657        -1.708364        -1.258608
