19
Iteration:  2384charge 0 multiplicity 1
 C        -0.000414        -0.489527         0.302719
 C         1.450863        -0.142473         0.020498
 C         2.578581        -0.367839         1.126011
 C         3.142303         0.792609         0.308354
 C         4.648137         1.208888         0.158941
 O         4.836356         0.222728        -0.915886
 C         3.355239         0.257172        -1.132792
 C         2.154000        -0.693172        -1.415146
 O         1.699205         1.312208         0.036545
 H        -0.492340         0.170689         1.200514
 H        -0.778319        -0.134869        -0.522523
 H        -0.331925        -1.530039         0.422423
 H         2.329343        -0.182306         2.176613
 H         3.235952        -1.250748         1.006899
 H         4.765201         2.311549        -0.039881
 H         5.335239         0.891554         0.925852
 H         3.155204         1.173441        -1.731302
 H         1.387106        -0.472883        -2.172131
 H         2.215600        -1.841123        -1.452579
