19
Iteration:  2758charge 0 multiplicity 1
 C        -0.051509        -0.605599         0.259486
 C         1.412386        -0.167332        -0.017403
 C         2.554324        -0.340247         0.978106
 C         3.115022         0.853435         0.238990
 C         4.617710         1.236719         0.151603
 O         4.854234         0.170052        -0.814358
 C         3.345070         0.278826        -1.167967
 C         2.082717        -0.660900        -1.253078
 O         1.837400         1.427964         0.083400
 H        -0.366829        -0.202093         1.179465
 H        -0.805078        -0.344385        -0.435578
 H         0.251589        -1.683256         0.292910
 H         2.311630        -0.207379         2.021516
 H         2.975054        -1.466990         0.950269
 H         4.906918         2.206286        -0.326221
 H         5.247887         0.962208         1.151853
 H         3.132026         1.005991        -2.057438
 H         1.419498        -0.789463        -2.113782
 H         2.285584        -1.695417        -1.073276
