19
Iteration:  2958charge 0 multiplicity 1
 C        -0.069598        -0.531205         0.361249
 C         1.431243        -0.159813        -0.014515
 C         2.592775        -0.352595         1.098627
 C         3.160412         0.780982         0.201147
 C         4.645493         1.230870         0.144731
 O         4.864914         0.155701        -0.722836
 C         3.336657         0.330833        -1.223996
 C         2.089792        -0.633999        -1.380712
 O         1.720695         1.311139         0.001083
 H        -0.201432        -0.446063         1.438761
 H        -0.793442        -0.074346        -0.312750
 H        -0.101558        -1.589020         0.225136
 H         2.303071         0.126059         2.139456
 H         3.197659        -1.268461         0.934164
 H         4.963212         2.238828        -0.302229
 H         5.227184         1.059195         1.060021
 H         3.170648         1.067283        -2.060441
 H         1.749146        -0.341492        -2.341258
 H         2.203432        -1.740441        -1.299028
