19
Iteration:  2630charge 0 multiplicity 1
 C        -0.021338        -0.508938         0.336536
 C         1.452733        -0.194727         0.092600
 C         2.671699        -0.310308         1.062975
 C         3.117362         0.918305         0.183422
 C         4.571098         1.159060         0.178489
 O         4.828499         0.098968        -0.827944
 C         3.349441         0.348581        -1.120785
 C         2.146821        -0.639060        -1.392524
 O         1.671365         1.316561        -0.004063
 H        -0.353371        -0.602605         1.359372
 H        -0.679948         0.139912        -0.321585
 H        -0.288842        -1.606997        -0.075551
 H         2.521972        -0.101651         2.132894
 H         3.171187        -1.270943         0.930219
 H         4.901767         2.148941        -0.115758
 H         5.149388         0.807661         1.049201
 H         3.185602         1.000701        -1.937212
 H         1.593227        -0.321741        -2.320391
 H         2.673992        -1.632296        -1.306511
