19
Iteration:  3654
 C         0.075362        -0.491226         0.303296
 C         1.522048        -0.179890         0.009799
 C         2.608863        -0.392112         1.013072
 C         3.075402         0.899882         0.137323
 C         4.530842         1.243282         0.108353
 O         4.676678         0.080321        -0.703080
 C         3.408456         0.308172        -1.231230
 C         2.174784        -0.691043        -1.319411
 O         1.726116         1.356886         0.151444
 H        -0.226516        -0.154921         1.343058
 H        -0.615883        -0.153148        -0.527775
 H        -0.050288        -1.580367         0.173587
 H         2.086476        -0.021830         1.923020
 H         3.230102        -1.238996         0.860286
 H         4.829323         2.180562        -0.529315
 H         5.177685         1.149967         0.998865
 H         3.439764         1.049768        -2.005523
 H         1.631476        -0.460911        -2.270550
 H         2.627446        -1.649435        -1.214111
