19
Iteration:  3018
 C        -0.036255        -0.548453         0.282093
 C         1.432679        -0.206308         0.047488
 C         2.635705        -0.323399         1.011307
 C         3.158343         0.867833         0.138029
 C         4.649795         1.255007         0.214780
 O         4.776849         0.125644        -0.799411
 C         3.333374         0.268737        -1.198740
 C         2.111399        -0.666031        -1.265130
 O         1.741052         1.356254         0.085808
 H        -0.547353        -0.332126         1.221171
 H        -0.539304        -0.065367        -0.624817
 H        -0.217342        -1.612110        -0.185259
 H         2.548554         0.009702         2.019977
 H         3.282785        -1.236300         1.001594
 H         4.861796         2.286632        -0.263685
 H         5.166664         1.074658         1.220287
 H         3.321905         1.034256        -2.038683
 H         1.650111        -0.392440        -2.300106
 H         2.093936        -1.763633        -1.213972
