19
Iteration:  1443
 C        -0.013242        -0.551058         0.304514
 C         1.458160        -0.272154         0.044864
 C         2.762696        -0.344790         0.939666
 C         3.036865         0.908430         0.196541
 C         4.593894         1.190311         0.205356
 O         4.773559         0.071110        -0.775076
 C         3.274216         0.399029        -1.216990
 C         2.176245        -0.609314        -1.392977
 O         1.712338         1.372587         0.100912
 H        -0.326827        -0.110541         1.338367
 H        -0.621702        -0.021218        -0.389029
 H        -0.259511        -1.579539         0.135281
 H         2.585910        -0.247227         2.065351
 H         3.487880        -1.208500         0.889595
 H         5.034356         2.176695        -0.049845
 H         4.931887         0.819564         1.329584
 H         3.346820         1.167513        -1.959395
 H         1.437210        -0.602599        -2.204529
 H         2.468499        -1.655158        -1.171136
