19
Iteration:  2697charge 0 multiplicity 1
 C        -0.030871        -0.490952         0.256850
 C         1.443815        -0.248064         0.069333
 C         2.721062        -0.349357         0.966270
 C         3.109409         0.872993         0.193300
 C         4.695024         1.229745         0.239878
 O         4.734171         0.124405        -0.790759
 C         3.338159         0.319127        -1.237687
 C         2.134923        -0.664689        -1.266187
 O         1.703215         1.357466         0.065774
 H        -0.433707         0.126282         1.173151
 H        -0.604809        -0.471768        -0.746914
 H        -0.397104        -1.583235         0.467550
 H         2.542968        -0.029193         2.036152
 H         3.056695        -1.357942         0.740766
 H         4.785570         2.264613        -0.187859
 H         5.265707         1.045086         1.097119
 H         3.375851         1.051044        -2.039546
 H         1.427304        -0.473021        -2.120336
 H         2.374148        -1.823362        -1.306713
