19
Iteration:  2464charge 0 multiplicity 1
 C         0.026342        -0.557482         0.316326
 C         1.469093        -0.176469         0.084688
 C         2.541407        -0.381158         1.169414
 C         3.123250         0.791516         0.148676
 C         4.601185         1.233311         0.159619
 O         4.855394         0.094987        -0.787194
 C         3.306248         0.326193        -1.282499
 C         2.127776        -0.552961        -1.395081
 O         1.741485         1.336957         0.051526
 H        -0.208849        -0.525109         1.398785
 H        -0.682218        -0.026629        -0.279415
 H        -0.095330        -1.669857        -0.098641
 H         2.286525         0.105911         2.084160
 H         3.014854        -1.294034         1.299022
 H         4.716331         2.116575        -0.399277
 H         5.303706         1.230919         1.062952
 H         3.317232         1.198585        -1.855635
 H         1.475878        -0.144117        -2.230925
 H         2.309308        -1.619811        -1.452461
