19
Iteration:  1557
 C        -0.029494        -0.518565         0.296268
 C         1.467899        -0.235849         0.011287
 C         2.635606        -0.367686         0.969911
 C         3.059032         0.927728         0.219685
 C         4.669367         1.232776         0.211922
 O         4.724780         0.123269        -0.806303
 C         3.391072         0.366197        -1.248776
 C         2.165878        -0.636646        -1.336860
 O         1.729368         1.303660         0.137006
 H        -0.390056        -0.401212         1.246248
 H        -0.745276         0.025181        -0.383769
 H        -0.260437        -1.553862        -0.012573
 H         2.412478        -0.137731         2.003356
 H         3.292524        -1.248194         0.919131
 H         5.202869         2.167413        -0.095759
 H         5.078967         0.768519         1.174533
 H         3.274507         1.107955        -2.002591
 H         1.399341        -0.608093        -2.214342
 H         2.483186        -1.680895        -1.233245
