19
Iteration:  1506
 C        -0.017184        -0.545228         0.208138
 C         1.455289        -0.231562         0.008731
 C         2.503536        -0.443782         1.042727
 C         3.183513         0.787067         0.235707
 C         4.653968         1.264453         0.186612
 O         4.795502         0.236754        -0.900443
 C         3.310064         0.304914        -1.122820
 C         2.140253        -0.624874        -1.290832
 O         1.833195         1.350336         0.111129
 H        -0.546126         0.061115         1.096984
 H        -0.759550        -0.381256        -0.584117
 H        -0.153911        -1.714186         0.578312
 H         2.283380        -0.072851         2.046651
 H         2.922452        -1.446597         1.159095
 H         4.735284         2.317680        -0.289093
 H         5.285412         0.900586         0.919081
 H         2.874343         1.253886        -1.750552
 H         1.694933        -0.259642        -2.233110
 H         2.189356        -1.699861        -1.362938
