19
Iteration:  4035charge 0 multiplicity 1
 C        -0.009465        -0.584724         0.226244
 C         1.455903        -0.162000         0.092822
 C         2.695331        -0.310768         0.941606
 C         3.102422         0.875280         0.125634
 C         4.601398         1.298941         0.200154
 O         4.750306         0.071567        -0.722271
 C         3.345660         0.256803        -1.265193
 C         2.139210        -0.686002        -1.317906
 O         1.697208         1.381776         0.147869
 H        -0.256884        -0.317861         1.228188
 H        -0.815490        -0.169062        -0.374582
 H        -0.015022        -1.685385         0.246402
 H         2.441855        -0.107149         2.010485
 H         3.466060        -1.138887         0.891714
 H         5.061059         2.264465        -0.238457
 H         5.075826         1.187134         1.156590
 H         3.466721         1.115743        -1.952431
 H         1.489661        -0.438764        -2.278497
 H         2.284021        -1.732078        -1.363876
