19
Iteration:  2164charge 0 multiplicity 1
 C        -0.002056        -0.527451         0.343479
 C         1.388918        -0.205708        -0.006507
 C         2.523901        -0.395038         1.071385
 C         3.101087         0.842367         0.183037
 C         4.593607         1.225473         0.180304
 O         4.857273         0.122039        -0.885591
 C         3.377439         0.292722        -1.206632
 C         2.179909        -0.621087        -1.394565
 O         1.773682         1.395389         0.149336
 H        -0.423730        -0.176984         1.270903
 H        -0.786515        -0.331298        -0.507308
 H        -0.123168        -1.580377         0.495174
 H         2.130354        -0.125700         2.054606
 H         3.191120        -1.241113         1.093285
 H         4.789617         2.322443        -0.064971
 H         5.225857         0.976227         1.000057
 H         3.397610         1.155826        -1.798779
 H         1.537739        -0.370260        -2.285282
 H         2.344869        -1.759207        -1.354669
