19
Iteration:  1888charge 0 multiplicity 1
 C        -0.033908        -0.529859         0.304493
 C         1.425079        -0.168702        -0.004245
 C         2.493434        -0.395563         1.022432
 C         3.133799         0.783543         0.264266
 C         4.603530         1.254638         0.183010
 O         4.895148         0.226655        -0.880833
 C         3.346281         0.276145        -1.113921
 C         2.095644        -0.684767        -1.298540
 O         1.812807         1.342865         0.041090
 H        -0.290303        -0.178625         1.357354
 H        -0.706340        -0.186240        -0.448584
 H         0.036892        -1.705856         0.359214
 H         2.089152        -0.201762         2.035265
 H         2.897883        -1.457663         0.950444
 H         4.706979         2.373640        -0.181355
 H         5.355762         1.123959         0.873433
 H         3.264927         1.239748        -1.799063
 H         1.716703        -0.283673        -2.309733
 H         2.168922        -1.777094        -1.519476
