19
Iteration:  2251charge 0 multiplicity 1
 C         0.021379        -0.515182         0.353660
 C         1.454382        -0.119407         0.020156
 C         2.583360        -0.412108         0.967961
 C         3.119743         0.824796         0.151659
 C         4.652300         1.176849         0.247729
 O         4.799024         0.133334        -0.801499
 C         3.278762         0.365688        -1.213204
 C         2.163426        -0.676304        -1.309817
 O         1.733017         1.344327         0.037549
 H        -0.103078        -0.253313         1.431223
 H        -0.656135         0.222671        -0.234028
 H        -0.193313        -1.538838         0.077872
 H         2.437191        -0.145523         2.020861
 H         3.122000        -1.341432         0.775369
 H         4.744597         2.211949        -0.181392
 H         5.048230         1.130444         1.217380
 H         3.183524         1.077621        -1.971008
 H         1.560298        -0.507578        -2.213717
 H         2.393271        -1.749074        -1.147656
