19
Iteration:  3961
 C         0.000738        -0.473935         0.311885
 C         1.417823        -0.172604        -0.027583
 C         2.659437        -0.403079         1.028952
 C         3.110773         0.837033         0.176163
 C         4.586625         1.136568         0.238749
 O         4.852438         0.205654        -0.861838
 C         3.267576         0.386409        -1.262090
 C         2.204654        -0.718930        -1.179764
 O         1.645250         1.329758         0.046116
 H        -0.397901         0.121383         1.118400
 H        -0.712106        -0.123614        -0.518502
 H        -0.151867        -1.578883         0.303671
 H         2.850124         0.035709         1.974352
 H         3.226350        -1.418814         0.778360
 H         4.801632         2.165759         0.073279
 H         5.106901         0.882325         1.188435
 H         3.414842         1.180545        -2.054857
 H         1.547512        -0.792860        -2.131158
 H         2.702938        -1.651328        -0.947561
