19
Iteration:  1305
 C        -0.005666        -0.556782         0.316188
 C         1.421889        -0.147948        -0.010153
 C         2.525476        -0.383131         1.018801
 C         3.125877         0.692293         0.224224
 C         4.640399         1.168958         0.216534
 O         4.889440         0.268564        -0.904102
 C         3.375832         0.281935        -1.206618
 C         2.104363        -0.649126        -1.363523
 O         1.738527         1.405189         0.174746
 H        -0.428604        -0.056318         1.205729
 H        -0.529579        -0.354711        -0.705870
 H         0.051086        -1.621502         0.505723
 H         2.002190        -0.095304         1.911302
 H         2.870354        -1.359812         1.131536
 H         4.491855         2.364619        -0.191936
 H         5.375069         1.176197         0.976038
 H         3.320401         1.201398        -1.927676
 H         1.520032        -0.702266        -2.261183
 H         2.356130        -1.720408        -1.147496
