19
Iteration:  1596
 C        -0.001175        -0.633024         0.308992
 C         1.414023        -0.142506        -0.000225
 C         2.509732        -0.377508         1.044616
 C         3.116509         0.805897         0.180605
 C         4.600569         1.317197         0.135360
 O         4.847550         0.075415        -0.759907
 C         3.443625         0.295877        -1.195283
 C         2.051627        -0.525488        -1.391554
 O         1.796708         1.347857         0.136835
 H        -0.185722        -0.741548         1.447358
 H        -0.810084        -0.083731        -0.201325
 H         0.140099        -1.703330        -0.063629
 H         2.109840        -0.136775         2.046159
 H         3.043692        -1.351266         1.063855
 H         4.652515         2.230147        -0.503022
 H         5.346110         1.211345         0.966499
 H         3.520027         1.163135        -1.938324
 H         1.537771        -0.130213        -2.193352
 H         2.050756        -1.632787        -1.469278
