19
Iteration:  2559charge 0 multiplicity 1
 C         0.015637        -0.522568         0.246593
 C         1.420973        -0.172384         0.001181
 C         2.527178        -0.415317         1.075541
 C         3.109324         0.796926         0.249138
 C         4.684757         1.290259         0.086395
 O         4.841029         0.127870        -0.840923
 C         3.340037         0.300092        -1.114505
 C         2.098018        -0.570741        -1.324283
 O         1.770218         1.272371         0.102212
 H        -0.361413         0.082634         1.163627
 H        -0.513301        -0.395521        -0.705301
 H        -0.060040        -1.540840         0.528184
 H         2.040158        -0.124561         2.065014
 H         3.125026        -1.371389         0.995517
 H         4.713666         2.260009        -0.517445
 H         5.290521         1.286559         1.017829
 H         3.256466         1.155664        -1.948259
 H         1.462600        -0.119340        -2.062810
 H         2.248271        -1.635401        -1.184896
