19
Iteration:  2969charge 0 multiplicity 1
 C        -0.092189        -0.554338         0.404512
 C         1.428017        -0.185568        -0.015578
 C         2.569280        -0.303558         0.974962
 C         3.113638         0.884869         0.167509
 C         4.658188         1.231079         0.177451
 O         4.808028         0.105286        -0.780584
 C         3.387224         0.299242        -1.170040
 C         2.222887        -0.674201        -1.413381
 O         1.712340         1.323610         0.061332
 H        -0.242076        -0.305479         1.461236
 H        -0.803403         0.113065        -0.070595
 H        -0.308051        -1.579482         0.180445
 H         2.345953        -0.003996         2.077628
 H         3.085417        -1.270512         1.139140
 H         4.826454         2.252321        -0.245982
 H         5.172892         1.075581         1.117770
 H         3.501885         1.156115        -1.868877
 H         1.507725        -0.432670        -2.144671
 H         2.471900        -1.757807        -1.475956
