19
Iteration:   235charge 0 multiplicity 1
 C        -0.042243        -0.556635         0.328714
 C         1.387034        -0.182855         0.111557
 C         2.524280        -0.408500         0.995164
 C         3.136341         0.793287         0.187620
 C         4.601133         1.252813         0.123743
 O         4.891831         0.231993        -0.853668
 C         3.400577         0.293495        -1.194431
 C         2.117893        -0.632356        -1.338697
 O         1.776044         1.305501         0.132914
 H        -0.379957        -0.468748         1.358827
 H        -0.709163         0.095916        -0.260833
 H        -0.215717        -1.553585         0.023869
 H         2.324934         0.013802         1.979133
 H         3.014981        -1.412696         1.017841
 H         4.587425         2.218427        -0.396367
 H         5.382716         1.267025         0.974825
 H         3.248514         1.102895        -1.876100
 H         1.655617        -0.280388        -2.326187
 H         2.238659        -1.811628        -1.352450
