19
Iteration:  4026charge 0 multiplicity 1
 C         0.003006        -0.616634         0.283792
 C         1.398494        -0.134358         0.085845
 C         2.676585        -0.387485         1.015254
 C         3.094103         0.877812         0.080969
 C         4.607708         1.338186         0.169351
 O         4.801961         0.033758        -0.725816
 C         3.359022         0.320088        -1.181171
 C         2.137256        -0.605733        -1.288145
 O         1.701223         1.352645         0.084134
 H        -0.468327        -0.372007         1.217346
 H        -0.643621        -0.179906        -0.534747
 H         0.015956        -1.681347         0.021520
 H         2.656300        -0.026317         2.029993
 H         3.143705        -1.447388         0.759107
 H         4.771733         2.277429        -0.383121
 H         5.209796         1.105619         1.026437
 H         3.323508         0.883678        -2.152615
 H         1.696480        -0.109614        -2.231638
 H         2.255466        -1.652800        -1.295574
