19
Iteration:  1248
 C         0.038660        -0.531215         0.258101
 C         1.497459        -0.226653         0.002403
 C         2.712062        -0.293501         0.974210
 C         3.068175         0.904458         0.139301
 C         4.594147         1.197734         0.140244
 O         4.815891         0.024502        -0.723375
 C         3.274556         0.396974        -1.236486
 C         2.174332        -0.593681        -1.344645
 O         1.596629         1.283363         0.207798
 H        -0.173376        -0.217827         1.404379
 H        -0.639255         0.080657        -0.364981
 H        -0.125945        -1.503161         0.089120
 H         2.339601        -0.111373         1.982755
 H         3.269591        -1.208701         0.813154
 H         5.024707         2.257041        -0.277425
 H         5.056078         0.867770         1.144209
 H         3.527528         1.117977        -2.019977
 H         1.481732        -0.342436        -2.179227
 H         2.647873        -1.637587        -1.363330
