19
Iteration:   492charge 0 multiplicity 1
 C         0.011674        -0.559452         0.233082
 C         1.442261        -0.176642         0.074243
 C         2.672208        -0.438383         0.904408
 C         3.106461         0.882083         0.243002
 C         4.619568         1.233462         0.151594
 O         4.804481         0.116759        -0.813866
 C         3.291265         0.373162        -1.186241
 C         2.101289        -0.612756        -1.331866
 O         1.722722         1.345407         0.227297
 H        -0.395089         0.012053         0.945001
 H        -0.442978        -0.316904        -0.764560
 H        -0.066570        -1.685639         0.447928
 H         2.478618        -0.341071         1.989388
 H         3.179798        -1.397884         0.725335
 H         4.791794         2.234685        -0.374945
 H         5.176972         1.156381         1.024063
 H         3.322196         1.088049        -1.967103
 H         1.447268        -0.418162        -2.213564
 H         2.462449        -1.659543        -1.304098
