19
Iteration:  3898charge 0 multiplicity 1
 C        -0.017610        -0.566816         0.239667
 C         1.410569        -0.079733         0.003850
 C         2.560350        -0.405215         1.010405
 C         3.173439         0.805343         0.297328
 C         4.600259         1.310167         0.064864
 O         4.768382         0.112143        -0.796657
 C         3.341924         0.340424        -1.139748
 C         2.151374        -0.650839        -1.279915
 O         1.787573         1.325720         0.114214
 H        -0.522329        -0.303310         1.209377
 H        -0.701761        -0.205128        -0.606683
 H         0.115126        -1.676707         0.275296
 H         2.510334        -0.118096         2.020542
 H         3.042683        -1.409906         0.885012
 H         4.715849         2.235328        -0.538743
 H         5.384585         1.366049         0.949024
 H         3.306516         0.943528        -2.029187
 H         1.520688        -0.641412        -2.182793
 H         2.417397        -1.750527        -1.242227
