19
Iteration:  1127charge 0 multiplicity 1
 C        -0.028862        -0.547784         0.190765
 C         1.458761        -0.128304         0.034950
 C         2.618189        -0.366002         0.990058
 C         3.138351         0.857242         0.257046
 C         4.597690         1.239608         0.179516
 O         4.781354         0.205948        -0.860865
 C         3.361793         0.249481        -1.165596
 C         2.148279        -0.682855        -1.398112
 O         1.734804         1.309305         0.239565
 H        -0.565769         0.039392         1.129507
 H        -0.496501        -0.333051        -0.768025
 H         0.029033        -1.593827         0.335950
 H         2.401113        -0.060243         1.998431
 H         3.148559        -1.318548         0.979114
 H         4.814462         2.289965        -0.199466
 H         5.197841         0.846945         1.019305
 H         3.202889         1.207761        -1.844308
 H         1.616425        -0.506185        -2.382755
 H         2.192205        -1.788580        -1.213840
