19
Iteration:  3002charge 0 multiplicity 1
 C         0.072472        -0.480624         0.259904
 C         1.465189        -0.097358         0.036508
 C         2.703677        -0.345792         0.982329
 C         3.081208         0.884962         0.150352
 C         4.583662         1.196695         0.206343
 O         4.715131         0.120178        -0.720440
 C         3.309868         0.325237        -1.221168
 C         2.138441        -0.750471        -1.345556
 O         1.727546         1.321988         0.081396
 H        -0.064930        -0.432595         1.356299
 H        -0.685729         0.061698        -0.251197
 H        -0.170734        -1.468483         0.060933
 H         2.302663         0.032064         1.975674
 H         3.222614        -1.279368         0.820723
 H         4.982633         2.164519        -0.182353
 H         5.034119         0.939562         1.122365
 H         3.355481         1.110236        -2.012899
 H         1.378373        -0.767068        -2.079152
 H         2.633415        -1.742590        -1.237509
