19
Iteration:    48
 C        -0.062183        -0.612549         0.284399
 C         1.400672        -0.182477         0.102229
 C         2.601110        -0.353185         1.018031
 C         3.165024         0.831899         0.206588
 C         4.617342         1.214895         0.164917
 O         4.795353         0.109330        -0.865343
 C         3.347335         0.416630        -1.254454
 C         2.189478        -0.589788        -1.240496
 O         1.753487         1.316452         0.119152
 H        -0.492694        -0.699130         1.244212
 H        -0.656502         0.152088        -0.449460
 H        -0.146531        -1.597124        -0.296900
 H         2.324338         0.030483         2.007637
 H         3.117616        -1.285317         1.038469
 H         4.730136         2.199242        -0.348040
 H         5.290458         1.128438         0.966990
 H         3.354074         1.207940        -2.127395
 H         1.415704        -0.453224        -2.088898
 H         2.506975        -1.719293        -1.205147
