19
Iteration:   891
 C        -0.012722        -0.637178         0.276547
 C         1.436989        -0.136831         0.000804
 C         2.642647        -0.328004         0.958637
 C         3.141148         0.808238         0.146800
 C         4.650374         1.272662         0.164448
 O         4.845351         0.090291        -0.753792
 C         3.368691         0.307351        -1.212960
 C         2.121001        -0.588049        -1.389589
 O         1.615031         1.384121         0.232933
 H        -0.247522        -0.427295         1.287940
 H        -0.847022        -0.213491        -0.356704
 H        -0.028656        -1.733927         0.129369
 H         2.382204        -0.072728         2.035666
 H         3.273299        -1.277897         0.981371
 H         4.819452         2.058281        -0.407209
 H         5.270840         1.157622         1.107479
 H         3.345039         0.995161        -2.030443
 H         1.616601        -0.256192        -2.296846
 H         2.198772        -1.712811        -1.275856
