19
Iteration:  1217
 C         0.012893        -0.609981         0.242354
 C         1.429150        -0.151425         0.035140
 C         2.647327        -0.397601         1.011253
 C         3.140167         0.786818         0.187472
 C         4.548003         1.257557         0.170288
 O         4.832016         0.115980        -0.730950
 C         3.302780         0.327143        -1.222458
 C         2.090577        -0.579258        -1.320057
 O         1.791676         1.408034         0.093970
 H        -0.335661        -0.639731         1.334869
 H        -0.879398        -0.177537        -0.339591
 H        -0.107215        -1.671051         0.080762
 H         2.469063        -0.234529         2.066692
 H         3.106937        -1.331211         0.863831
 H         4.753317         2.262289        -0.375265
 H         5.199412         1.092726         0.980133
 H         3.320261         1.197638        -2.011756
 H         1.436875        -0.344224        -2.128583
 H         2.339053        -1.651196        -1.351384
