19
Iteration:   133
 C         0.076065        -0.576289         0.289183
 C         1.454639        -0.205228        -0.060275
 C         2.524928        -0.411595         0.977692
 C         3.124748         0.736692         0.231814
 C         4.595118         1.293618         0.166916
 O         4.874387         0.179276        -0.883985
 C         3.394149         0.231765        -1.130465
 C         2.066388        -0.582365        -1.299398
 O         1.716847         1.405332         0.193770
 H        -0.244268         0.086583         0.946560
 H        -0.618594        -0.456576        -0.576066
 H        -0.072880        -1.601293         0.710023
 H         2.252814        -0.164429         1.994001
 H         2.946351        -1.378769         0.954640
 H         4.645239         2.221630        -0.512885
 H         5.263799         1.429512         0.959947
 H         3.256361         0.968328        -1.798754
 H         1.504362        -0.143378        -2.161403
 H         2.108476        -1.672719        -1.403015
