19
Iteration:  1692
 C         0.035750        -0.563961         0.238513
 C         1.379684        -0.021770         0.081088
 C         2.478274        -0.446251         1.036949
 C         3.172332         0.698163         0.222958
 C         4.651305         1.246921         0.144619
 O         4.818196         0.246359        -0.853978
 C         3.351570         0.242029        -1.202617
 C         2.132732        -0.628765        -1.275173
 O         1.759407         1.328293         0.113565
 H        -0.539478        -0.059671         1.113779
 H        -0.422397        -0.292714        -0.696980
 H         0.204905        -1.732620         0.318947
 H         2.257465        -0.061738         2.035949
 H         2.885851        -1.448607         1.078406
 H         4.598276         2.304276        -0.396012
 H         5.282769         1.069797         0.947247
 H         3.418505         1.251277        -1.730543
 H         1.700261        -0.278561        -2.372823
 H         2.281619        -1.778407        -1.232628
