19
Iteration:  4526charge 0 multiplicity 1
 C        -0.005108        -0.509616         0.244756
 C         1.459005        -0.162186         0.006959
 C         2.699921        -0.376778         0.981753
 C         3.078308         0.893046         0.125746
 C         4.617008         1.167163         0.198977
 O         4.696718         0.080281        -0.780657
 C         3.330233         0.338702        -1.183173
 C         2.202905        -0.689853        -1.249730
 O         1.697160         1.387473         0.118255
 H        -0.238317        -0.451806         1.318356
 H        -0.721908         0.063288        -0.308940
 H        -0.291432        -1.474289        -0.010860
 H         2.667105         0.061055         2.001712
 H         3.384059        -1.192976         1.110859
 H         4.850246         2.126926        -0.373600
 H         5.092892         1.320355         1.105811
 H         3.277053         0.909497        -2.116573
 H         1.884793        -0.513867        -2.281861
 H         2.527299        -1.776411        -1.175396
