19
Iteration:  1144
 C        -0.017112        -0.485778         0.182604
 C         1.416645        -0.210124         0.065202
 C         2.664158        -0.428549         1.017911
 C         3.097840         0.764130         0.150774
 C         4.633604         1.176523         0.233066
 O         4.747640         0.197187        -0.872876
 C         3.296790         0.439030        -1.272989
 C         2.237882        -0.638420        -1.220635
 O         1.724316         1.333709         0.158853
 H        -0.429534         0.011732         0.937931
 H        -0.633700        -0.292634        -0.706937
 H        -0.302564        -1.540886         0.529398
 H         2.455523        -0.224984         2.109253
 H         3.287584        -1.378828         0.963836
 H         4.787407         2.168809        -0.112020
 H         5.049706         0.979816         1.307621
 H         3.342958         1.149712        -2.038812
 H         1.506962        -0.682495        -2.058677
 H         2.753249        -1.600382        -1.207878
