19
Iteration:  4437
 C         0.027441        -0.418573         0.357735
 C         1.438417        -0.219103         0.025404
 C         2.598126        -0.321787         1.037218
 C         3.060078         0.840985         0.125643
 C         4.592329         1.107979         0.232308
 O         4.757377         0.161048        -0.829336
 C         3.378155         0.389676        -1.242168
 C         2.244544        -0.738462        -1.354752
 O         1.685512         1.317221         0.090427
 H        -0.266667         0.201789         1.144008
 H        -0.460631        -0.289657        -0.609133
 H        -0.108161        -1.464669         0.683257
 H         2.306695        -0.063568         2.027696
 H         3.308911        -1.191487         1.123433
 H         4.969582         2.077246        -0.247456
 H         4.910932         0.996407         1.249300
 H         3.372288         1.199117        -2.012902
 H         1.643226        -0.559269        -2.343244
 H         2.492197        -1.765548        -1.199549
