19
Iteration:  1638
 C         0.088722        -0.472204         0.241470
 C         1.482214        -0.113509         0.019456
 C         2.675921        -0.375381         0.998180
 C         3.070290         0.888236         0.211473
 C         4.530330         1.115330         0.298753
 O         4.711473         0.100732        -0.871619
 C         3.329167         0.395922        -1.283064
 C         2.200514        -0.638718        -1.291213
 O         1.656985         1.257972         0.140808
 H        -0.261157         0.075627         1.266803
 H        -0.455903        -0.119979        -0.670809
 H         0.039948        -1.692676         0.448234
 H         2.566885        -0.020264         2.039760
 H         3.359897        -1.220566         0.908940
 H         4.977789         2.153304        -0.134039
 H         5.110828         0.970535         1.222186
 H         3.482349         1.226584        -2.124162
 H         1.535649        -0.510708        -2.235191
 H         2.539951        -1.717766        -1.197706
