19
Iteration:  2940charge 0 multiplicity 1
 C         0.039591        -0.560348         0.263504
 C         1.471642        -0.109119         0.034900
 C         2.577081        -0.358015         0.986778
 C         3.134876         0.812739         0.167511
 C         4.573387         1.247159         0.204291
 O         4.869845         0.128328        -0.814898
 C         3.366597         0.226135        -1.161773
 C         2.039406        -0.624945        -1.278586
 O         1.738528         1.336917         0.050462
 H        -0.407259        -0.158411         1.214151
 H        -0.528405        -0.052009        -0.527041
 H         0.092752        -1.651944         0.272362
 H         2.384541         0.005611         1.962782
 H         3.039712        -1.297875         1.119328
 H         4.586388         2.314871        -0.204482
 H         5.117526         1.226102         1.096407
 H         3.421423         1.079238        -1.917525
 H         1.220562        -0.322519        -1.979397
 H         2.240996        -1.711240        -1.235863
