19
Iteration:  3076
 C         0.011787        -0.467772         0.268152
 C         1.414552        -0.259067        -0.023970
 C         2.583163        -0.394976         1.015702
 C         3.076223         0.856033         0.194365
 C         4.578513         1.172634         0.175439
 O         4.781730         0.141505        -0.854867
 C         3.318341         0.355495        -1.174700
 C         2.211745        -0.697408        -1.253428
 O         1.789785         1.412820         0.097866
 H        -0.531547         0.156701         1.049373
 H        -0.583057        -0.393721        -0.667959
 H        -0.057416        -1.506436         0.737648
 H         2.414302        -0.204560         2.111625
 H         3.274348        -1.218912         0.816070
 H         4.775850         2.160476        -0.192311
 H         5.144296         1.103726         1.199384
 H         3.205569         1.102788        -1.937509
 H         1.745919        -0.603991        -2.193490
 H         2.463443        -1.760022        -1.060602
