19
Iteration:  2935
 C         0.008387        -0.542590         0.254154
 C         1.516276        -0.151462         0.041643
 C         2.548752        -0.336480         0.992911
 C         3.135138         0.833908         0.173805
 C         4.530191         1.251270         0.174447
 O         4.841850         0.115289        -0.821297
 C         3.395540         0.236748        -1.164694
 C         2.079484        -0.651229        -1.276807
 O         1.756241         1.368064         0.106117
 H        -0.381327        -0.223400         1.201770
 H        -0.443364        -0.226892        -0.707375
 H         0.006800        -1.646154         0.316428
 H         2.440433         0.204798         2.021032
 H         3.046000        -1.378903         0.766530
 H         4.646747         2.296572        -0.211077
 H         5.094574         1.108504         1.176321
 H         3.212336         0.967269        -2.011832
 H         1.414004        -0.288576        -2.050097
 H         2.161934        -1.746996        -1.230611
