19
Iteration:  2629charge 0 multiplicity 1
 C        -0.010546        -0.506769         0.334176
 C         1.450071        -0.187456         0.098286
 C         2.672216        -0.315457         1.066601
 C         3.116597         0.915587         0.186392
 C         4.569975         1.157122         0.186553
 O         4.827891         0.101663        -0.828374
 C         3.346587         0.351493        -1.133097
 C         2.149542        -0.647070        -1.391320
 O         1.665332         1.316105        -0.002190
 H        -0.342828        -0.573527         1.335217
 H        -0.663687         0.123221        -0.307024
 H        -0.311714        -1.592003        -0.095746
 H         2.539813        -0.067585         2.094148
 H         3.198880        -1.216039         0.914730
 H         4.902810         2.113216        -0.116952
 H         5.155632         0.782888         1.083233
 H         3.183702         1.001960        -1.970199
 H         1.577404        -0.355897        -2.315998
 H         2.661426        -1.625684        -1.331612
