19
Iteration:  3498charge 0 multiplicity 1
 C        -0.006601        -0.522594         0.337645
 C         1.453253        -0.199618        -0.024421
 C         2.618891        -0.307246         0.939722
 C         3.096490         0.853111         0.167992
 C         4.617363         1.211136         0.139473
 O         4.811837         0.082893        -0.684869
 C         3.347434         0.312149        -1.198307
 C         2.182869        -0.640888        -1.339836
 O         1.674533         1.364153         0.055056
 H        -0.217745        -0.337686         1.396243
 H        -0.803417         0.067126        -0.118374
 H        -0.128991        -1.639847         0.275812
 H         2.424492        -0.131434         2.012552
 H         3.174572        -1.241010         0.790354
 H         4.880861         2.231365        -0.339520
 H         5.059606         1.245903         1.126324
 H         3.473473         1.046717        -1.922801
 H         1.452854        -0.669166        -2.077511
 H         2.512704        -1.714523        -1.163291
