19
Iteration:  1442charge 0 multiplicity 1
 C        -0.007215        -0.546369         0.305652
 C         1.448678        -0.274317         0.046797
 C         2.760214        -0.342299         0.940445
 C         3.040244         0.901883         0.188201
 C         4.587644         1.189077         0.204381
 O         4.778432         0.067911        -0.776087
 C         3.280050         0.399218        -1.205219
 C         2.180742        -0.608391        -1.396336
 O         1.707618         1.374796         0.100774
 H        -0.329454        -0.117359         1.343987
 H        -0.643269        -0.031548        -0.335460
 H        -0.279714        -1.619074         0.114887
 H         2.611200        -0.239395         2.053488
 H         3.474769        -1.202564         0.916329
 H         5.055189         2.201292        -0.056280
 H         4.896719         0.805098         1.298127
 H         3.357994         1.202851        -1.984562
 H         1.430614        -0.590499        -2.184426
 H         2.489913        -1.634461        -1.198717
