19
Iteration:  3114
 C        -0.050537        -0.498115         0.318917
 C         1.471079        -0.190396         0.008104
 C         2.635418        -0.309445         1.011329
 C         3.098115         0.842692         0.148595
 C         4.690194         1.209132         0.259564
 O         4.785557         0.145993        -0.805801
 C         3.344232         0.324892        -1.209019
 C         2.116389        -0.638907        -1.287436
 O         1.725086         1.280344         0.037366
 H        -0.284536         0.012980         1.213312
 H        -0.704080        -0.406318        -0.533762
 H        -0.104172        -1.559753         0.340893
 H         2.209053         0.117116         1.946184
 H         3.155643        -1.290019         1.099684
 H         5.042652         2.165904        -0.203176
 H         5.106603         0.897336         1.144466
 H         3.413447         1.059766        -2.110172
 H         1.315718        -0.510298        -2.107570
 H         2.350098        -1.703331        -1.323989
