19
Iteration:   480
 C         0.014456        -0.483165         0.207232
 C         1.510660        -0.190169        -0.020286
 C         2.748122        -0.338366         0.995315
 C         3.126525         0.883468         0.201476
 C         4.621565         1.148494         0.243530
 O         4.717392         0.172502        -0.868779
 C         3.292719         0.383707        -1.259727
 C         2.128042        -0.681272        -1.325106
 O         1.663529         1.286022         0.288272
 H        -0.481359         0.017297         0.931326
 H        -0.586702        -0.321487        -0.711652
 H        -0.194079        -1.609415         0.435216
 H         2.386435        -0.192831         2.036571
 H         3.550655        -1.083866         0.843661
 H         4.936494         2.156727        -0.126123
 H         5.189437         0.835431         1.110542
 H         3.249840         1.051146        -2.031646
 H         1.549165        -0.556704        -2.298912
 H         2.324780        -1.819414        -1.232138
