19
Iteration:  1609charge 0 multiplicity 1
 C        -0.036810        -0.653707         0.294420
 C         1.391603        -0.187826         0.010384
 C         2.593297        -0.385319         0.952878
 C         3.114809         0.850525         0.205875
 C         4.691346         1.216635         0.150676
 O         4.777165         0.149195        -0.719835
 C         3.371450         0.331344        -1.224361
 C         2.097630        -0.629906        -1.362405
 O         1.782578         1.415528         0.155618
 H        -0.264880        -0.415605         1.290888
 H        -0.785183        -0.118479        -0.334338
 H        -0.225760        -1.636238         0.121867
 H         2.394241        -0.028146         1.979333
 H         3.154756        -1.354188         0.907273
 H         4.813745         2.134796        -0.310592
 H         5.390711         1.322880         1.065681
 H         3.409830         0.911401        -2.102814
 H         1.594357        -0.184915        -2.141980
 H         2.211157        -1.684147        -1.598718
