19
Iteration:  4816charge 0 multiplicity 1
 C        -0.080654        -0.537927         0.299456
 C         1.416122        -0.146922         0.063187
 C         2.667872        -0.274701         0.997761
 C         3.113143         0.848716         0.177476
 C         4.598869         1.159357         0.274811
 O         4.800718         0.180343        -0.874588
 C         3.342991         0.329886        -1.247393
 C         2.175200        -0.671667        -1.327385
 O         1.729451         1.252755         0.064509
 H        -0.135741         0.215412         0.975151
 H        -0.700100        -0.284193        -0.559914
 H        -0.355342        -1.496479         0.803231
 H         2.488544         0.026389         2.005035
 H         3.264280        -1.236784         1.129537
 H         5.032838         2.180295         0.191803
 H         4.944439         0.547415         1.217995
 H         3.392773         1.140646        -2.026927
 H         1.448369        -0.417279        -2.165342
 H         2.660567        -1.604822        -1.298963
