19
Iteration:  1205charge 0 multiplicity 1
 C        -0.027399        -0.627148         0.312802
 C         1.402106        -0.162930         0.067486
 C         2.514296        -0.412694         0.962457
 C         3.106364         0.822356         0.195130
 C         4.586906         1.199735         0.163462
 O         4.936419         0.155218        -0.817989
 C         3.320856         0.325187        -1.170590
 C         2.070102        -0.548934        -1.300075
 O         1.832316         1.340014         0.078186
 H        -0.423697        -0.423016         1.423166
 H        -0.605762        -0.098826        -0.501771
 H         0.194204        -1.580560        -0.029667
 H         2.222455        -0.091033         1.949162
 H         3.116098        -1.261375         0.919120
 H         4.690470         2.268606        -0.376388
 H         4.926990         1.361779         1.188065
 H         3.320071         1.275284        -1.861937
 H         1.483485        -0.427227        -2.201605
 H         2.431400        -1.614591        -1.265792
