19
Iteration:  3182
 C        -0.050889        -0.481341         0.244180
 C         1.461355        -0.183914         0.148025
 C         2.714986        -0.331830         0.989592
 C         3.112896         0.915606         0.130643
 C         4.563937         1.240582         0.229144
 O         4.855072         0.079924        -0.785511
 C         3.380498         0.268612        -1.212597
 C         2.102583        -0.697860        -1.284469
 O         1.658166         1.347261         0.076067
 H        -0.330156        -0.271981         1.210803
 H        -0.675049        -0.004875        -0.500055
 H        -0.180106        -1.508410        -0.101980
 H         2.574444        -0.086516         2.012794
 H         3.427623        -1.173858         1.031259
 H         4.785867         2.195168        -0.289124
 H         5.001804         0.925606         1.092766
 H         3.261753         0.952196        -2.147757
 H         1.466429        -0.364877        -2.187755
 H         2.359271        -1.773407        -1.525511
