19
Iteration:   229charge 0 multiplicity 1
 C        -0.081999        -0.583331         0.336441
 C         1.398908        -0.198797         0.097756
 C         2.495730        -0.421056         1.076283
 C         3.107919         0.754040         0.183030
 C         4.575429         1.262457         0.164708
 O         4.935605         0.195855        -0.905287
 C         3.415439         0.334029        -1.215139
 C         2.094344        -0.592839        -1.337937
 O         1.823813         1.342444         0.078197
 H        -0.300856        -0.592475         1.496384
 H        -0.746647         0.055293        -0.237910
 H        -0.219210        -1.669254        -0.001786
 H         2.294771        -0.076794         2.119266
 H         3.093171        -1.346411         1.139431
 H         4.605015         2.248429        -0.353871
 H         5.225174         1.347794         1.051079
 H         3.301876         1.247312        -1.966157
 H         1.510033        -0.390270        -2.205409
 H         2.352544        -1.608833        -1.300547
