19
Iteration:  4923charge 0 multiplicity 1
 C         0.002403        -0.448488         0.335210
 C         1.393935        -0.231419         0.006091
 C         2.596355        -0.341813         1.019950
 C         3.092851         0.846545         0.148202
 C         4.618687         1.141288         0.216813
 O         4.777634         0.138173        -0.791644
 C         3.353373         0.402398        -1.239240
 C         2.255977        -0.720917        -1.343640
 O         1.688938         1.343638         0.060108
 H        -0.160903        -0.138605         1.455121
 H        -0.704547         0.187845        -0.286484
 H        -0.286283        -1.547583         0.260937
 H         2.393023         0.033767         2.008916
 H         3.165221        -1.354285         1.026901
 H         4.924049         2.143854        -0.119875
 H         5.130474         0.943514         1.120982
 H         3.185354         1.295084        -1.805791
 H         1.800850        -0.841081        -2.374634
 H         2.649156        -1.720314        -1.134833
