19
Iteration:   998charge 0 multiplicity 1
 C         0.103616        -0.515955         0.145076
 C         1.478522        -0.148465        -0.033090
 C         2.524683        -0.477991         1.047379
 C         3.185465         0.806271         0.263752
 C         4.651238         1.317217         0.128166
 O         4.810881         0.176857        -0.855466
 C         3.285081         0.284416        -1.106837
 C         2.052077        -0.685108        -1.327285
 O         1.710287         1.342409         0.220392
 H        -0.226007        -0.026393         1.135608
 H        -0.652234        -0.374958        -0.679240
 H         0.101058        -1.557807         0.324774
 H         2.096090        -0.149563         1.966995
 H         2.988111        -1.453623         1.087842
 H         4.878502         2.406217        -0.338826
 H         5.401858         1.190147         0.856668
 H         3.357521         1.141858        -1.783176
 H         1.486502        -0.251063        -2.087675
 H         2.190402        -1.716311        -1.550439
