19
Iteration:   351
 C         0.054653        -0.595077         0.345809
 C         1.451693        -0.200106         0.015511
 C         2.636400        -0.318143         0.941278
 C         3.120779         0.821819         0.155876
 C         4.577624         1.158716         0.205688
 O         4.802740         0.120268        -0.836143
 C         3.284814         0.380237        -1.240526
 C         2.166459        -0.593472        -1.331192
 O         1.682862         1.344743         0.174414
 H        -0.180199        -0.156170         1.271697
 H        -0.701186        -0.090132        -0.367413
 H        -0.087883        -1.750409         0.342953
 H         2.254347         0.041981         1.889309
 H         3.271369        -1.194152         1.014583
 H         4.976559         2.201102        -0.108459
 H         5.028676         0.860035         1.083870
 H         3.380748         1.294641        -2.008851
 H         1.605259        -0.458608        -2.195910
 H         2.498787        -1.555461        -1.271606
