19
Iteration:   840charge 0 multiplicity 1
 C        -0.054079        -0.563452         0.296289
 C         1.457860        -0.201285        -0.005193
 C         2.605208        -0.317876         1.028215
 C         3.105629         0.825243         0.231242
 C         4.617365         1.208326         0.167331
 O         4.830253         0.147445        -0.886498
 C         3.356756         0.388172        -1.167524
 C         2.169162        -0.652596        -1.379960
 O         1.707319         1.319903         0.179949
 H        -0.517037        -0.216234         1.194029
 H        -0.616910        -0.211192        -0.620367
 H        -0.161413        -1.741022         0.309831
 H         2.361418         0.072636         2.039070
 H         3.186034        -1.231931         1.122245
 H         4.912814         2.291801        -0.179135
 H         5.206844         0.905144         1.124061
 H         3.277768         1.132309        -2.003695
 H         1.504893        -0.522599        -2.279843
 H         2.478484        -1.711138        -1.273526
