19
Iteration:  1529charge 0 multiplicity 1
 C         0.046963        -0.449471         0.230439
 C         1.473617        -0.150263         0.032232
 C         2.619373        -0.352495         0.984993
 C         3.079555         0.787188         0.254106
 C         4.598476         1.118281         0.240391
 O         4.800513         0.200071        -0.885970
 C         3.369501         0.365395        -1.277904
 C         2.206326        -0.692378        -1.324061
 O         1.632913         1.321445         0.191377
 H        -0.498241         0.032456         1.186089
 H        -0.593780        -0.136215        -0.579017
 H        -0.014740        -1.627252         0.392009
 H         2.501277        -0.078391         2.053139
 H         3.258090        -1.239592         0.926533
 H         4.638735         2.186462        -0.112239
 H         5.216068         0.716339         1.042782
 H         3.130082         1.247368        -2.043513
 H         1.506348        -0.754492        -2.142231
 H         2.522682        -1.720500        -1.120730
