19
Iteration:  4741charge 0 multiplicity 1
 C        -0.002725        -0.507998         0.213633
 C         1.459597        -0.232306        -0.010821
 C         2.627049        -0.295752         1.040770
 C         3.108551         0.864969         0.181719
 C         4.650144         1.281686         0.130481
 O         4.810869         0.069050        -0.780461
 C         3.340131         0.274536        -1.205313
 C         2.142993        -0.616331        -1.288927
 O         1.675427         1.290190         0.169323
 H        -0.210005        -0.231712         1.274787
 H        -0.529834         0.115348        -0.533865
 H        -0.363698        -1.603887         0.060313
 H         2.401316        -0.198108         2.072072
 H         3.247159        -1.227573         1.017618
 H         4.868712         2.198167        -0.398554
 H         5.145076         1.355483         1.175220
 H         3.362883         0.993023        -2.070560
 H         1.509836        -0.235391        -2.135379
 H         2.206983        -1.661894        -1.246287
