19
Iteration:  4284
 C         0.034355        -0.512503         0.270750
 C         1.360733        -0.060023        -0.044249
 C         2.533583        -0.371699         1.029432
 C         3.152420         0.796443         0.187179
 C         4.609708         1.255910         0.174806
 O         4.848578         0.215071        -0.856784
 C         3.342445         0.173036        -1.221238
 C         2.141515        -0.705749        -1.180982
 O         1.748239         1.332014         0.149416
 H        -0.478892         0.105532         0.985508
 H        -0.685081        -0.316085        -0.611769
 H         0.045480        -1.669270         0.379778
 H         2.207816        -0.133534         2.030755
 H         3.112226        -1.310412         0.861896
 H         4.708593         2.217128        -0.375039
 H         5.279853         1.202105         0.982893
 H         3.307455         1.079090        -1.922776
 H         1.740685        -0.621105        -2.300803
 H         2.445064        -1.727300        -1.124529
