19
Iteration:  1360charge 0 multiplicity 1
 C         0.042620        -0.469038         0.169632
 C         1.444732        -0.191717         0.027615
 C         2.691982        -0.365316         1.005094
 C         3.130957         0.871084         0.130378
 C         4.648445         1.226743         0.190037
 O         4.774493         0.137742        -0.785330
 C         3.256871         0.352115        -1.223938
 C         2.156203        -0.679483        -1.322573
 O         1.685355         1.251083         0.249815
 H        -0.280042        -0.135857         1.145906
 H        -0.614757         0.043357        -0.663368
 H        -0.227627        -1.517148         0.204502
 H         2.397435         0.003752         1.972108
 H         3.158295        -1.319059         0.974399
 H         4.943055         2.194256        -0.371036
 H         5.107255         1.212156         1.123001
 H         3.178982         1.210570        -2.005301
 H         1.463010        -0.615605        -2.153637
 H         2.383679        -1.751642        -1.195195
