19
Iteration:  3164
 C         0.012068        -0.591376         0.261447
 C         1.417025        -0.142637         0.021437
 C         2.582913        -0.314773         1.003555
 C         3.141277         0.823768         0.117858
 C         4.652438         1.246983         0.082192
 O         4.824224         0.081545        -0.674695
 C         3.307745         0.346628        -1.251929
 C         2.093499        -0.644644        -1.304883
 O         1.745295         1.346909         0.160169
 H        -0.291799        -0.360240         1.363110
 H        -0.577574         0.032195        -0.440440
 H        -0.192240        -1.645018        -0.046709
 H         2.351526         0.154244         1.987817
 H         3.089266        -1.257951         0.958320
 H         4.830312         2.197242        -0.414667
 H         5.186607         1.231976         1.167734
 H         3.477288         0.962513        -2.078445
 H         1.640474        -0.669893        -2.244154
 H         2.218883        -1.705800        -0.999434
