19
Iteration:  2584charge 0 multiplicity 1
 C        -0.049048        -0.521462         0.282766
 C         1.418682        -0.135582         0.043104
 C         2.618118        -0.359548         1.026372
 C         3.105495         0.777514         0.189617
 C         4.598958         1.201961         0.166193
 O         4.817609         0.129813        -0.826534
 C         3.340371         0.310039        -1.225035
 C         2.218454        -0.719497        -1.353558
 O         1.722805         1.439529         0.143082
 H        -0.398952        -0.286070         1.270412
 H        -0.622038        -0.109761        -0.554156
 H        -0.043049        -1.688786         0.257310
 H         2.371556        -0.245875         2.036043
 H         3.165792        -1.226766         0.840804
 H         4.724704         2.160204        -0.255649
 H         5.213681         1.130272         1.132114
 H         3.218197         1.212630        -1.877659
 H         1.578154        -0.493260        -2.217115
 H         2.461600        -1.717714        -1.078188
