19
Iteration:  4468charge 0 multiplicity 1
 C        -0.066918        -0.493274         0.285802
 C         1.404234        -0.145154         0.035220
 C         2.561424        -0.421514         1.036111
 C         3.108855         0.819640         0.193914
 C         4.595928         1.213173         0.182262
 O         4.851063         0.179316        -0.889103
 C         3.388823         0.284664        -1.163182
 C         2.166404        -0.741251        -1.254555
 O         1.774427         1.415763         0.087318
 H        -0.510626        -0.102574         1.131247
 H        -0.593143        -0.220385        -0.628349
 H         0.091138        -1.595717         0.315079
 H         2.329322        -0.064490         2.031278
 H         3.183525        -1.354925         0.891895
 H         4.703516         2.167753        -0.412861
 H         4.996190         1.159936         1.229621
 H         3.317984         1.101379        -1.885214
 H         1.678999        -0.530257        -2.284060
 H         2.221941        -1.791779        -1.174115
