19
Iteration:   395
 C        -0.058147        -0.519490         0.240714
 C         1.447383        -0.216204         0.045374
 C         2.723849        -0.456183         1.012058
 C         3.161657         0.806935         0.171271
 C         4.522258         1.251488         0.147985
 O         4.795111         0.126300        -0.784981
 C         3.311810         0.337464        -1.239827
 C         2.104361        -0.582732        -1.301813
 O         1.763276         1.325683         0.182947
 H        -0.206878        -0.298640         1.253608
 H        -0.629299         0.218174        -0.426244
 H        -0.291775        -1.613185         0.003267
 H         2.708050        -0.038751         2.009471
 H         3.257671        -1.404199         0.998366
 H         4.516550         2.262574        -0.485173
 H         5.164827         1.378202         0.941290
 H         3.381968         1.259517        -1.994466
 H         1.517207        -0.426677        -2.147662
 H         2.417188        -1.547794        -1.251069
