19
Iteration:  3227charge 0 multiplicity 1
 C        -0.056265        -0.479279         0.391304
 C         1.384729        -0.162003        -0.060630
 C         2.484363        -0.338076         1.031651
 C         3.073906         0.776087         0.227286
 C         4.583675         1.241209         0.178874
 O         4.885953         0.135359        -0.887199
 C         3.389725         0.327227        -1.211162
 C         2.286288        -0.732264        -1.345949
 O         1.755263         1.368172         0.126365
 H        -0.362871         0.037845         1.234844
 H        -0.707245        -0.265906        -0.428313
 H        -0.230848        -1.543361         0.383550
 H         2.308504        -0.065299         2.031823
 H         2.897792        -1.295187         1.125453
 H         4.645491         2.173817        -0.371304
 H         5.193727         1.129227         1.004257
 H         3.356189         1.231594        -1.907974
 H         1.729507        -0.770611        -2.251441
 H         2.485883        -1.799629        -1.014761
