19
Iteration:   996
 C         0.107396        -0.502765         0.126791
 C         1.470619        -0.140723        -0.035868
 C         2.538257        -0.470516         1.048017
 C         3.184275         0.801530         0.267650
 C         4.638466         1.312122         0.131312
 O         4.805064         0.174008        -0.854784
 C         3.287797         0.281736        -1.109655
 C         2.049272        -0.698050        -1.316658
 O         1.714796         1.334920         0.227260
 H        -0.284949         0.037166         1.174586
 H        -0.639055        -0.400996        -0.662245
 H         0.133317        -1.601543         0.299659
 H         2.152183        -0.131930         1.965497
 H         3.063495        -1.411553         1.022609
 H         4.882360         2.368417        -0.342938
 H         5.357483         1.201898         0.850785
 H         3.293258         1.228032        -1.793518
 H         1.482957        -0.217136        -2.100511
 H         2.256335        -1.734909        -1.534840
