19
Iteration:  2654charge 0 multiplicity 1
 C         0.056879        -0.589264         0.283116
 C         1.411000        -0.117307        -0.013528
 C         2.490533        -0.376281         1.012316
 C         3.170370         0.803029         0.206553
 C         4.637959         1.272810         0.139501
 O         4.808572         0.099577        -0.754893
 C         3.396824         0.336040        -1.198298
 C         2.098608        -0.654108        -1.333673
 O         1.735964         1.360005         0.117000
 H        -0.125573        -0.425316         1.415418
 H        -0.750021        -0.027414        -0.315158
 H        -0.311896        -1.640471         0.183155
 H         2.257656         0.102609         2.045487
 H         3.172149        -1.312126         1.131668
 H         4.745390         2.201935        -0.535822
 H         5.437487         1.274194         0.812119
 H         3.207578         0.871908        -2.067225
 H         1.502042        -0.233515        -2.164737
 H         2.336625        -1.782360        -1.275304
