19
Iteration:   116charge 0 multiplicity 1
 C        -0.092623        -0.561085         0.364982
 C         1.362599        -0.081505         0.026032
 C         2.515957        -0.457521         1.000916
 C         3.166599         0.780293         0.248867
 C         4.567938         1.277715         0.113711
 O         4.901225         0.217876        -0.829714
 C         3.393380         0.315589        -1.183192
 C         2.132863        -0.644972        -1.431620
 O         1.826366         1.298730         0.133279
 H        -0.550925        -0.049258         1.357581
 H        -0.839825        -0.598771        -0.494971
 H         0.050545        -1.591985         0.686831
 H         2.220148        -0.177876         2.032520
 H         3.127189        -1.409832         0.982951
 H         4.535109         2.305424        -0.226583
 H         5.294158         1.176956         0.987047
 H         3.371977         1.210072        -1.980856
 H         1.636185        -0.419866        -2.396317
 H         2.288633        -1.767640        -1.310170
