19
Iteration:  4875charge 0 multiplicity 1
 C        -0.010434        -0.590705         0.187325
 C         1.392019        -0.090032         0.097588
 C         2.615967        -0.349253         1.017863
 C         3.149382         0.808036         0.192957
 C         4.579174         1.275673         0.134940
 O         4.854646         0.081546        -0.739600
 C         3.321814         0.260423        -1.267181
 C         2.100494        -0.608154        -1.290812
 O         1.799749         1.346102         0.148966
 H        -0.455204        -0.547407         1.249285
 H        -0.724814         0.057814        -0.298007
 H        -0.170582        -1.585348        -0.095907
 H         2.158475        -0.008229         2.046581
 H         3.168257        -1.244637         0.989957
 H         4.605805         2.221414        -0.497919
 H         5.240528         1.514361         0.988991
 H         3.398642         0.932585        -2.127975
 H         1.449440        -0.498946        -2.086266
 H         2.412579        -1.675518        -1.411580
