19
Iteration:  1962charge 0 multiplicity 1
 C         0.039783        -0.556758         0.237994
 C         1.487698        -0.158302         0.034379
 C         2.586529        -0.330707         1.009890
 C         3.123451         0.871290         0.168159
 C         4.591667         1.205307         0.155178
 O         4.757566         0.104266        -0.760632
 C         3.324741         0.298720        -1.211905
 C         2.139603        -0.635648        -1.336221
 O         1.744058         1.333865         0.171528
 H        -0.275010        -0.444432         1.405457
 H        -0.606644        -0.102162        -0.528229
 H        -0.088882        -1.730016         0.012831
 H         2.259382         0.120305         1.969666
 H         3.202763        -1.305990         0.914822
 H         4.806371         2.238260        -0.340560
 H         5.245660         1.298290         1.062148
 H         3.443972         1.057628        -1.966159
 H         1.500453        -0.313609        -2.144520
 H         2.291560        -1.674574        -1.471372
