19
Iteration:  1782
 C        -0.017813        -0.632587         0.363735
 C         1.397337        -0.160942         0.003792
 C         2.474422        -0.345112         1.051078
 C         3.081690         0.823809         0.227117
 C         4.599139         1.233502         0.177351
 O         4.869257         0.158674        -0.838937
 C         3.412166         0.244688        -1.190251
 C         2.139367        -0.666483        -1.429201
 O         1.787100         1.468027         0.111827
 H        -0.151906        -0.609843         1.422187
 H        -0.870059        -0.171915        -0.260831
 H         0.115821        -1.691734         0.082379
 H         2.185785        -0.065464         2.043599
 H         3.149263        -1.169753         0.919230
 H         5.023002         2.083206        -0.311511
 H         5.091577         0.919673         1.162829
 H         3.369857         1.017617        -1.948332
 H         1.608116        -0.044203        -2.157416
 H         2.270627        -1.769307        -1.588956
