19
Iteration:  3390charge 0 multiplicity 1
 C         0.015289        -0.460640         0.216249
 C         1.432700        -0.156988         0.029840
 C         2.659906        -0.348024         1.007543
 C         3.115832         0.792985         0.185266
 C         4.641684         1.309516         0.178608
 O         4.677408         0.095548        -0.791056
 C         3.279873         0.349905        -1.173056
 C         2.218748        -0.762313        -1.281885
 O         1.761341         1.346618         0.105938
 H        -0.245043         0.128692         1.065722
 H        -0.531892        -0.240939        -0.705431
 H        -0.134899        -1.563735         0.393695
 H         2.265997        -0.187643         2.056760
 H         3.143835        -1.354508         1.065705
 H         4.849112         2.277224        -0.366627
 H         5.078681         1.108318         1.035169
 H         3.203118         1.090570        -1.977713
 H         1.676132        -0.685417        -2.178952
 H         2.631824        -1.856777        -1.202438
