19
Iteration:  1624
 C         0.018031        -0.546745         0.275587
 C         1.463069        -0.194101         0.028884
 C         2.685445        -0.354074         0.936085
 C         3.104770         0.871453         0.142962
 C         4.592934         1.224564         0.231313
 O         4.798436         0.061494        -0.810729
 C         3.345993         0.344243        -1.172952
 C         2.130417        -0.586649        -1.329420
 O         1.676382         1.365808         0.162049
 H        -0.397419        -0.181003         1.236485
 H        -0.631352        -0.151738        -0.481320
 H        -0.098909        -1.679679         0.205802
 H         2.397351        -0.244523         1.989049
 H         3.285754        -1.248437         0.796963
 H         4.935322         2.219729        -0.200132
 H         4.974686         0.843547         1.130486
 H         3.247714         1.182152        -1.928975
 H         1.507307        -0.552796        -2.364529
 H         2.422410        -1.643691        -1.179270
