19
Iteration:   297charge 0 multiplicity 1
 C        -0.021766        -0.554868         0.273264
 C         1.440515        -0.156063         0.036350
 C         2.634899        -0.353700         1.062061
 C         3.097288         0.870752         0.199684
 C         4.669471         1.203656         0.211858
 O         4.817371         0.165096        -0.917912
 C         3.347072         0.352703        -1.211603
 C         2.106137        -0.636895        -1.365523
 O         1.692944         1.267432         0.184952
 H        -0.363737        -0.072101         1.127727
 H        -0.662897        -0.386558        -0.691005
 H         0.018217        -1.670239         0.525239
 H         2.339015        -0.045794         2.048974
 H         3.156173        -1.289932         1.102756
 H         5.032515         2.187206        -0.233045
 H         5.257580         1.003172         1.016500
 H         3.353694         1.195829        -1.984989
 H         1.553039        -0.422665        -2.225864
 H         2.194673        -1.643788        -1.259661
