19
Iteration:   949
 C         0.005084        -0.445205         0.259428
 C         1.443884        -0.234167        -0.024981
 C         2.614134        -0.333584         0.975591
 C         3.101885         0.870877         0.172543
 C         4.651718         1.164682         0.246267
 O         4.786491         0.234937        -0.852790
 C         3.297227         0.365387        -1.223962
 C         2.205979        -0.718117        -1.332735
 O         1.684713         1.252006         0.204433
 H        -0.308991        -0.012781         1.213887
 H        -0.611344        -0.070098        -0.578945
 H        -0.222091        -1.593872         0.285663
 H         2.301586        -0.097435         2.024354
 H         3.246481        -1.238818         0.842504
 H         5.071179         2.103687        -0.019477
 H         5.142810         0.880763         1.234782
 H         3.366073         1.174872        -1.973797
 H         1.543533        -0.706782        -2.264767
 H         2.418216        -1.784325        -1.084476
