19
Iteration:  3931charge 0 multiplicity 1
 C        -0.001234        -0.470810         0.278909
 C         1.464607        -0.234426        -0.016492
 C         2.540617        -0.318832         1.097652
 C         3.077251         0.824844         0.238456
 C         4.622084         1.208070         0.174003
 O         4.800092         0.252711        -0.911501
 C         3.363796         0.273901        -1.201920
 C         2.196426        -0.735966        -1.297689
 O         1.742497         1.305880         0.122603
 H        -0.412687         0.109264         1.186076
 H        -0.551477        -0.239927        -0.676080
 H        -0.269645        -1.554427         0.352098
 H         2.484556         0.135956         2.061715
 H         3.120485        -1.295187         1.182939
 H         4.804513         2.264926        -0.101944
 H         5.167500         0.784956         1.123096
 H         3.244976         0.923477        -2.086378
 H         1.607691        -0.269781        -2.083323
 H         2.290060        -1.874546        -1.439991
