19
Iteration:  2072
 C         0.043002        -0.564537         0.200656
 C         1.440848        -0.119990         0.018047
 C         2.499472        -0.365989         1.054380
 C         3.119613         0.761823         0.257851
 C         4.603708         1.238233         0.096256
 O         4.830097         0.115436        -0.875298
 C         3.394445         0.281969        -1.111354
 C         2.118454        -0.585374        -1.264820
 O         1.732089         1.350944         0.109401
 H        -0.320865        -0.375834         1.316891
 H        -0.608243        -0.134579        -0.513164
 H        -0.086307        -1.744600         0.261168
 H         2.405046         0.079165         2.071446
 H         3.155995        -1.320657         0.936457
 H         4.738232         2.294406        -0.294424
 H         5.373258         1.149501         0.908528
 H         3.306129         1.109971        -1.795757
 H         1.592827        -0.173153        -2.104015
 H         2.143206        -1.619702        -1.373025
