19
Iteration:  2477charge 0 multiplicity 1
 C        -0.015578        -0.573303         0.341804
 C         1.413804        -0.152706        -0.021191
 C         2.595448        -0.286623         1.078754
 C         3.121508         0.819441         0.217156
 C         4.573145         1.222612         0.150076
 O         4.817708         0.093367        -0.868869
 C         3.420451         0.341401        -1.131792
 C         2.130748        -0.589395        -1.399952
 O         1.756330         1.286360         0.084921
 H        -0.237528        -0.379482         1.332332
 H        -0.798530        -0.097570        -0.203390
 H        -0.055718        -1.717271         0.183912
 H         2.215347         0.200586         1.974877
 H         3.096825        -1.222764         1.371878
 H         4.895608         2.203528        -0.145810
 H         4.960292         0.908381         1.159453
 H         3.402505         1.041413        -1.937936
 H         1.465884        -0.287411        -2.240004
 H         2.328326        -1.621581        -1.602111
