19
Iteration:  4126charge 0 multiplicity 1
 C         0.006126        -0.470183         0.172038
 C         1.427153        -0.128308         0.125958
 C         2.643248        -0.372211         1.031254
 C         3.103917         0.765920         0.175899
 C         4.516216         1.252207         0.130975
 O         4.754103         0.160678        -0.811420
 C         3.349656         0.230877        -1.244663
 C         2.214430        -0.675080        -1.323721
 O         1.776883         1.343594         0.188218
 H        -0.552702        -0.022591         1.009096
 H        -0.564919        -0.256810        -0.703679
 H         0.098041        -1.526414         0.239720
 H         2.410694         0.071931         2.011488
 H         3.374017        -1.227309         1.211988
 H         4.633270         2.229245        -0.348654
 H         5.147335         1.243055         1.070189
 H         3.117044         1.065047        -1.903674
 H         1.554331        -0.647376        -2.171330
 H         2.486426        -1.754383        -1.082166
