19
Iteration:  4497charge 0 multiplicity 1
 C        -0.004349        -0.485383         0.188106
 C         1.460984        -0.188962         0.016623
 C         2.603322        -0.378777         1.114716
 C         3.166817         0.809445         0.201793
 C         4.650591         1.281634         0.089129
 O         4.808454         0.096156        -0.809785
 C         3.339563         0.312718        -1.145678
 C         2.084237        -0.641258        -1.278535
 O         1.723572         1.284139         0.118480
 H        -0.490167        -0.291589         1.255917
 H        -0.709603         0.004525        -0.542549
 H        -0.057940        -1.589357        -0.088409
 H         2.272047         0.285041         1.978503
 H         3.219193        -1.249733         1.382649
 H         4.774855         2.164705        -0.534092
 H         5.208312         1.556712         1.030013
 H         3.244672         1.123941        -1.921690
 H         1.587252        -0.354738        -2.172781
 H         2.156750        -1.772650        -1.384560
