19
Iteration:  2200
 C        -0.016658        -0.530599         0.165656
 C         1.467234        -0.140735         0.054577
 C         2.618163        -0.400384         1.053238
 C         3.101995         0.794779         0.232883
 C         4.644493         1.310333         0.138503
 O         4.785298         0.089692        -0.875340
 C         3.344851         0.317573        -1.183993
 C         2.061726        -0.604252        -1.268289
 O         1.802811         1.346020         0.163209
 H        -0.529936         0.057035         1.011269
 H        -0.551269        -0.465674        -0.767446
 H         0.182100        -1.539037         0.351338
 H         2.185417        -0.222943         2.021661
 H         3.062927        -1.387564         0.974787
 H         4.763506         2.336931        -0.157716
 H         5.249449         0.892203         1.048604
 H         3.133533         1.172821        -1.937104
 H         1.414579        -0.565902        -2.208107
 H         2.350530        -1.725068        -1.080214
