19
Iteration:  2954charge 0 multiplicity 1
 C        -0.007971        -0.517284         0.332779
 C         1.401102        -0.137552         0.017805
 C         2.610601        -0.365636         1.108821
 C         3.156649         0.753671         0.203083
 C         4.630123         1.248197         0.158585
 O         4.880249         0.163572        -0.732535
 C         3.328938         0.322063        -1.235152
 C         2.045038        -0.615650        -1.338633
 O         1.723733         1.310578        -0.013336
 H        -0.178637        -0.396956         1.402726
 H        -0.791645        -0.205658        -0.411453
 H        -0.145827        -1.672014         0.154533
 H         2.231375         0.077654         2.006571
 H         3.234417        -1.284211         0.948655
 H         4.917574         2.115014        -0.342775
 H         5.289464         1.067311         1.105316
 H         3.235589         1.024703        -2.019030
 H         1.739415        -0.394458        -2.393894
 H         2.160249        -1.686810        -1.310017
