19
Iteration:  3608
 C        -0.053939        -0.529058         0.275386
 C         1.365807        -0.225235         0.069664
 C         2.523975        -0.374890         1.098116
 C         3.111171         0.858897         0.154404
 C         4.641575         1.231833         0.185518
 O         4.894041         0.214862        -0.870087
 C         3.381259         0.290246        -1.225952
 C         2.181037        -0.677578        -1.280719
 O         1.757619         1.294532         0.059121
 H        -0.344241         0.096390         1.215781
 H        -0.680312        -0.280591        -0.612263
 H        -0.153059        -1.626840         0.381661
 H         2.324420         0.325308         2.006453
 H         2.991392        -1.315391         1.096570
 H         4.896215         2.374401        -0.053023
 H         5.070609         0.982642         1.121933
 H         3.345310         0.882768        -2.110503
 H         1.534558        -0.204581        -1.967706
 H         2.112250        -1.795372        -1.252078
