19
Iteration:  1790
 C        -0.042194        -0.642728         0.331096
 C         1.421914        -0.134552        -0.048416
 C         2.459325        -0.367326         1.064481
 C         3.129917         0.795162         0.185531
 C         4.676420         1.230911         0.182347
 O         4.875447         0.152539        -0.822028
 C         3.358308         0.260753        -1.222499
 C         2.147590        -0.624846        -1.345802
 O         1.746006         1.465932         0.125210
 H        -0.217645        -0.497986         1.426224
 H        -0.873690        -0.367254        -0.190214
 H         0.124324        -1.765526         0.143625
 H         2.255298        -0.088062         2.105459
 H         3.055211        -1.324403         1.086657
 H         4.939380         2.314885        -0.241352
 H         5.242634         1.076111         1.046223
 H         3.566735         1.121317        -1.948033
 H         1.393721        -0.296756        -2.341320
 H         2.085952        -1.787695        -1.527079
