19
Iteration:  3808
 C         0.025183        -0.565565         0.336111
 C         1.391258        -0.064149        -0.039644
 C         2.517420        -0.370785         0.996279
 C         3.160689         0.784129         0.213672
 C         4.628518         1.264763         0.122571
 O         4.805783         0.170037        -0.777394
 C         3.364855         0.290358        -1.202878
 C         2.123538        -0.685521        -1.326409
 O         1.749517         1.364885         0.109019
 H        -0.175294        -0.362060         1.386826
 H        -0.761188        -0.260602        -0.434188
 H        -0.004460        -1.700286         0.411629
 H         2.303073        -0.082232         2.002180
 H         3.100516        -1.325478         1.133647
 H         4.880502         2.237292        -0.373489
 H         5.181028         1.074617         1.104071
 H         3.472186         0.980730        -2.031073
 H         1.641107        -0.751749        -2.379105
 H         2.267407        -1.718265        -1.151298
