19
Iteration:    10
 C         0.053569        -0.559578         0.301095
 C         1.469652        -0.098772         0.052119
 C         2.569388        -0.353505         0.968085
 C         3.131884         0.836272         0.256169
 C         4.631381         1.258196         0.169008
 O         4.735184         0.160739        -0.851425
 C         3.336533         0.269463        -1.220521
 C         2.124835        -0.707698        -1.359365
 O         1.766187         1.333108         0.177846
 H        -0.431879        -0.390149         1.358525
 H        -0.547948        -0.152581        -0.366921
 H         0.058223        -1.585884         0.075219
 H         2.013053        -0.067625         1.885385
 H         3.177452        -1.322739         0.883417
 H         4.692905         2.193428        -0.367136
 H         5.417087         1.155941         1.044642
 H         3.195623         1.031670        -1.844232
 H         1.737780        -0.288693        -2.224892
 H         2.188113        -1.723903        -1.489259
