19
Iteration:  2804charge 0 multiplicity 1
 C         0.018111        -0.491981         0.257692
 C         1.495455        -0.285851        -0.013457
 C         2.688236        -0.316524         1.049872
 C         3.070592         0.875695         0.136026
 C         4.649753         1.250900         0.124455
 O         4.689944         0.031618        -0.729691
 C         3.358287         0.402890        -1.194509
 C         2.153768        -0.638021        -1.280876
 O         1.705286         1.274367         0.090926
 H        -0.231889        -0.084546         1.211975
 H        -0.558409         0.306911        -0.245787
 H        -0.489086        -1.491035         0.102011
 H         2.286505         0.007667         2.045108
 H         3.520049        -1.055317         1.301620
 H         4.715565         2.247543        -0.380767
 H         5.171746         1.201219         1.182844
 H         3.257873         1.152517        -2.116900
 H         1.653927        -0.539993        -2.267655
 H         2.465240        -1.733449        -1.389024
