19
Iteration:   115charge 0 multiplicity 1
 C        -0.097410        -0.557398         0.373367
 C         1.366775        -0.075729         0.028329
 C         2.520449        -0.464251         1.008520
 C         3.165336         0.774500         0.242586
 C         4.572322         1.275307         0.114163
 O         4.894973         0.222161        -0.823458
 C         3.383006         0.321269        -1.189654
 C         2.143735        -0.643529        -1.433032
 O         1.828061         1.297149         0.127755
 H        -0.541511        -0.079604         1.313891
 H        -0.875210        -0.588027        -0.505951
 H         0.039153        -1.595356         0.685951
 H         2.254111        -0.193672         2.038121
 H         3.102945        -1.400931         0.993987
 H         4.582205         2.321910        -0.226873
 H         5.245993         1.166765         0.981866
 H         3.360757         1.195800        -1.982887
 H         1.631353        -0.418526        -2.423385
 H         2.316363        -1.793792        -1.302935
