19
Iteration:   373
 C         0.045426        -0.453869         0.271450
 C         1.491741        -0.230359         0.094514
 C         2.738560        -0.411246         0.938167
 C         3.073860         0.986574         0.188067
 C         4.677063         1.246811         0.183247
 O         4.685914         0.122597        -0.782745
 C         3.378552         0.339628        -1.215297
 C         2.092515        -0.713523        -1.360941
 O         1.585998         1.254557         0.195263
 H        -0.290680        -0.111496         1.201402
 H        -0.458109         0.190817        -0.543922
 H        -0.131127        -1.587587         0.082079
 H         2.618740        -0.326186         2.008796
 H         3.473809        -1.154043         0.675349
 H         5.167204         2.192512        -0.315410
 H         5.237796         0.988624         1.003458
 H         3.545127         1.149092        -2.115050
 H         1.508249        -0.381248        -2.146216
 H         2.321135        -1.684324        -1.459447
