19
Iteration:   720charge 0 multiplicity 1
 C         0.110085        -0.737714         0.305515
 C         1.397021        -0.128093         0.009714
 C         2.539657        -0.278824         1.024892
 C         3.149260         0.799074         0.174167
 C         4.550700         1.209068         0.175123
 O         4.889224         0.083421        -0.844299
 C         3.332837         0.274552        -1.191391
 C         2.033135        -0.500077        -1.353982
 O         1.750609         1.425617         0.164199
 H        -0.072726        -0.656854         1.320212
 H        -0.715403        -0.209678        -0.326108
 H         0.143374        -1.935487         0.063461
 H         2.192042         0.191631         1.957755
 H         2.909874        -1.295878         1.158151
 H         4.832959         2.243921        -0.274685
 H         5.215711         0.980234         1.077211
 H         3.378135         1.158345        -2.028024
 H         1.645085        -0.167481        -2.360224
 H         2.210888        -1.624262        -1.260758
