19
Iteration:  4116
 C         0.031216        -0.509759         0.191653
 C         1.453723        -0.108219         0.065473
 C         2.560707        -0.352209         1.113981
 C         3.104094         0.825650         0.193080
 C         4.520304         1.263008         0.137416
 O         4.826880         0.187202        -0.860453
 C         3.366465         0.274698        -1.249286
 C         2.126605        -0.743661        -1.313342
 O         1.800011         1.308115         0.192951
 H        -0.392797        -0.033678         1.115411
 H        -0.430588        -0.203443        -0.722167
 H        -0.059623        -1.569399         0.354784
 H         2.287746         0.088963         2.098931
 H         2.981112        -1.398647         1.099117
 H         4.513779         2.242473        -0.218027
 H         5.212382         1.067182         1.006138
 H         3.328422         0.950665        -2.128623
 H         1.781074        -0.494065        -2.248139
 H         2.123057        -1.885066        -1.170061
