19
Iteration:  4049
 C         0.078456        -0.553031         0.332744
 C         1.487006        -0.210593        -0.097661
 C         2.679110        -0.261996         0.978272
 C         3.070463         0.949163         0.146008
 C         4.547201         1.154397         0.209549
 O         4.750980         0.131479        -0.739713
 C         3.355575         0.338257        -1.226799
 C         2.131558        -0.716078        -1.354186
 O         1.704614         1.339131         0.185150
 H        -0.307509        -0.093011         1.254625
 H        -0.432505        -0.042002        -0.520013
 H        -0.182050        -1.589939         0.161679
 H         2.398780         0.119783         1.920290
 H         3.263865        -1.281385         0.962770
 H         4.802574         2.071339        -0.263787
 H         5.050784         0.922869         1.169518
 H         3.314463         0.847203        -2.205155
 H         1.456902        -0.699811        -2.241472
 H         2.478914        -1.700978        -1.043924
