19
Iteration:  2279
 C        -0.012780        -0.599843         0.359466
 C         1.404151        -0.110488        -0.027226
 C         2.519540        -0.332810         1.022794
 C         3.113797         0.810562         0.155319
 C         4.591454         1.233753         0.196654
 O         4.892047         0.129333        -0.817686
 C         3.398340         0.234086        -1.195361
 C         2.070439        -0.636565        -1.399438
 O         1.819807         1.390580         0.130086
 H        -0.083699        -0.548289         1.419065
 H        -0.773301        -0.026363        -0.027156
 H        -0.155631        -1.732674         0.119964
 H         2.238835         0.005618         2.044413
 H         3.074351        -1.310917         1.013245
 H         4.668894         2.172790        -0.314045
 H         5.048455         1.339028         1.266409
 H         3.311794         0.981021        -2.091809
 H         1.581346        -0.186456        -2.260119
 H         2.016418        -1.713683        -1.344644
