19
Iteration:  1626charge 0 multiplicity 1
 C         0.046106        -0.526581         0.265037
 C         1.462284        -0.177281         0.038335
 C         2.695818        -0.351484         0.946169
 C         3.081891         0.872576         0.143298
 C         4.580722         1.208172         0.242715
 O         4.796842         0.050808        -0.828677
 C         3.356120         0.359025        -1.176109
 C         2.126794        -0.587263        -1.326146
 O         1.670927         1.343812         0.160199
 H        -0.419285        -0.118424         1.283480
 H        -0.642216        -0.166342        -0.507121
 H        -0.098193        -1.739469         0.209023
 H         2.369561        -0.264889         1.986372
 H         3.321050        -1.219908         0.786789
 H         4.944379         2.264990        -0.183299
 H         4.942587         0.876396         1.185789
 H         3.220142         1.212043        -1.979694
 H         1.545673        -0.590745        -2.355797
 H         2.462882        -1.649757        -1.155059
