19
Iteration:   102
 C        -0.063646        -0.511122         0.391531
 C         1.405017        -0.141442         0.057478
 C         2.605068        -0.476670         1.028992
 C         3.119256         0.723542         0.132946
 C         4.610705         1.262641         0.223283
 O         4.788707         0.237323        -0.814167
 C         3.308635         0.336312        -1.263935
 C         2.251263        -0.641921        -1.387510
 O         1.767606         1.329954         0.092805
 H        -0.366201         0.004394         1.190625
 H        -0.801988        -0.212272        -0.495127
 H        -0.110997        -1.615389         0.543141
 H         2.510592        -0.125870         2.041984
 H         2.892189        -1.466346         0.898774
 H         4.966778         2.223150        -0.244130
 H         5.064876         1.071279         1.128133
 H         3.222556         1.205479        -1.910987
 H         1.584979        -0.541213        -2.333276
 H         2.630061        -1.750702        -1.298882
