19
Iteration:  2611
 C         0.030934        -0.486867         0.274933
 C         1.500167        -0.192055         0.000630
 C         2.651094        -0.273596         0.967309
 C         3.107087         0.840881         0.073227
 C         4.642728         1.142007         0.283825
 O         4.716000         0.160081        -0.813696
 C         3.341532         0.334915        -1.299992
 C         2.175960        -0.699559        -1.253906
 O         1.651352         1.305501         0.133506
 H        -0.147274        -0.432136         1.398932
 H        -0.497035         0.305193        -0.335919
 H        -0.116083        -1.532735         0.073708
 H         2.283527         0.024491         2.033225
 H         3.179228        -1.321929         1.177914
 H         5.051328         2.208792         0.051481
 H         5.073126         0.869662         1.209399
 H         3.322509         1.156774        -2.051746
 H         1.508411        -0.443368        -2.079000
 H         2.393983        -1.791000        -0.981652
