19
Iteration:  1091
 C        -0.040111        -0.586118         0.307328
 C         1.404325        -0.132055         0.107196
 C         2.580145        -0.413352         1.008778
 C         3.132565         0.772057         0.196933
 C         4.591016         1.258678         0.115996
 O         4.766211         0.140770        -0.757229
 C         3.405633         0.391178        -1.219002
 C         2.189586        -0.531305        -1.382035
 O         1.792070         1.267170         0.074770
 H        -0.483067        -0.515261         1.280461
 H        -0.743861        -0.208758        -0.384137
 H        -0.054525        -1.677449         0.087884
 H         2.328085        -0.072654         2.059789
 H         2.985836        -1.487982         0.978729
 H         4.694486         2.279059        -0.239285
 H         5.229426         1.204353         1.156361
 H         3.403318         1.277665        -1.844939
 H         1.424301        -0.320631        -2.233373
 H         2.457515        -1.632086        -1.391672
