19
Iteration:  4256
 C        -0.002448        -0.483729         0.252097
 C         1.440835        -0.297996         0.056482
 C         2.653100        -0.353908         1.115855
 C         3.115723         0.879274         0.169061
 C         4.612993         1.320341         0.174619
 O         4.736181         0.065462        -0.800762
 C         3.349293         0.330134        -1.236700
 C         2.135519        -0.673478        -1.296553
 O         1.742653         1.324638         0.089414
 H        -0.596083         0.150419         0.953723
 H        -0.324581        -0.281912        -0.753936
 H        -0.292241        -1.478547         0.462035
 H         2.341740        -0.052146         2.123909
 H         3.277468        -1.262632         1.109035
 H         4.772397         2.185132        -0.502293
 H         5.298929         1.179652         1.090325
 H         3.309176         1.131010        -1.939493
 H         1.547560        -0.374764        -2.142822
 H         2.669455        -1.608674        -1.659731
