19
Iteration:  3950charge 0 multiplicity 1
 C        -0.041108        -0.451677         0.249438
 C         1.455862        -0.162043         0.101788
 C         2.707631        -0.365800         0.964220
 C         3.142057         0.823088         0.184597
 C         4.636259         1.167821         0.284101
 O         4.816414         0.265737        -0.897280
 C         3.325529         0.336581        -1.163959
 C         2.122408        -0.724712        -1.256365
 O         1.640283         1.289898         0.006057
 H        -0.283878         0.028512         1.189741
 H        -0.613623        -0.126651        -0.678552
 H        -0.260117        -1.512390         0.546215
 H         2.458066        -0.158225         2.001018
 H         3.290649        -1.397935         1.025756
 H         5.044553         2.077500        -0.065790
 H         4.998762         0.780808         1.260615
 H         3.106677         1.064681        -2.012595
 H         1.489879        -0.973643        -2.204690
 H         2.604452        -1.662324        -1.002447
