19
Iteration:   439charge 0 multiplicity 1
 C        -0.030770        -0.535943         0.290315
 C         1.396598        -0.149318        -0.018265
 C         2.559698        -0.413537         1.073835
 C         3.139675         0.714110         0.310733
 C         4.695840         1.141955         0.203853
 O         4.798939         0.296189        -1.003886
 C         3.367967         0.384372        -1.176826
 C         2.155510        -0.681304        -1.281275
 O         1.724726         1.350311         0.074917
 H        -0.245604        -0.288728         1.301746
 H        -0.801228        -0.099205        -0.452075
 H        -0.046123        -1.677437         0.280983
 H         2.198776        -0.203651         2.069563
 H         3.169261        -1.327044         1.041160
 H         4.828237         2.302487         0.014982
 H         5.416059         0.848265         0.901144
 H         3.030959         1.334018        -1.784300
 H         1.546556        -0.637480        -2.143077
 H         2.439585        -1.631832        -1.031061
