19
Iteration:  1998charge 0 multiplicity 1
 C        -0.036243        -0.530482         0.310430
 C         1.420648        -0.197509        -0.018631
 C         2.552343        -0.326961         0.976608
 C         3.171875         0.749326         0.224401
 C         4.639191         1.193817         0.196129
 O         4.884702         0.208711        -0.827772
 C         3.336955         0.294189        -1.141073
 C         2.090188        -0.619905        -1.321755
 O         1.764577         1.331520         0.079540
 H        -0.454979        -0.008707         1.196030
 H        -0.800242        -0.364360        -0.485461
 H        -0.063294        -1.681762         0.573719
 H         2.152728        -0.208765         1.983548
 H         3.089925        -1.284968         0.975543
 H         4.541817         2.198537        -0.414968
 H         5.321933         1.212071         0.976866
 H         3.125755         1.223470        -1.750862
 H         1.565411        -0.300663        -2.248916
 H         2.369056        -1.695714        -1.375011
