19
Iteration:  1133
 C        -0.055748        -0.513456         0.197745
 C         1.441105        -0.114417         0.039714
 C         2.649986        -0.400907         1.015584
 C         3.120044         0.849700         0.217188
 C         4.583105         1.205337         0.202031
 O         4.775426         0.208463        -0.858519
 C         3.314653         0.336592        -1.198318
 C         2.190626        -0.704282        -1.351406
 O         1.745280         1.292889         0.221300
 H        -0.517118        -0.011060         0.936908
 H        -0.580546        -0.360602        -0.757856
 H         0.040383        -1.635596         0.352808
 H         2.485317         0.016305         2.046442
 H         3.218627        -1.369351         0.943762
 H         4.902245         2.163021        -0.159088
 H         5.299656         0.934492         1.078624
 H         3.154687         1.038516        -1.973804
 H         1.696844        -0.437271        -2.301323
 H         2.368889        -1.777213        -1.263991
