19
Iteration:  4947
 C         0.024542        -0.493320         0.329633
 C         1.391180        -0.116923        -0.060601
 C         2.488135        -0.370127         1.017945
 C         3.162214         0.843524         0.228680
 C         4.574420         1.226879         0.203921
 O         4.808910         0.138002        -0.849146
 C         3.410647         0.301066        -1.228960
 C         2.210229        -0.683101        -1.296375
 O         1.743620         1.328666         0.099762
 H        -0.282829         0.031518         1.245462
 H        -0.770635        -0.290176        -0.464185
 H         0.025105        -1.661981         0.572665
 H         2.201159        -0.101745         2.048355
 H         2.935192        -1.413292         0.965841
 H         4.747149         2.233776        -0.077978
 H         5.238924         0.978988         1.075417
 H         3.244585         1.069669        -2.001501
 H         1.686711        -0.572585        -2.341073
 H         2.328798        -1.751388        -1.194482
