19
Iteration:    89charge 0 multiplicity 1
 C         0.040367        -0.443778         0.340733
 C         1.474562        -0.243944         0.036727
 C         2.629999        -0.390554         0.924776
 C         3.087289         0.850592         0.168983
 C         4.546428         1.185295         0.282449
 O         4.766026         0.181309        -0.882264
 C         3.372820         0.398702        -1.242646
 C         2.191542        -0.709450        -1.308555
 O         1.686606         1.297461         0.125202
 H        -0.198058         0.026990         1.231941
 H        -0.555623         0.027328        -0.439458
 H        -0.283668        -1.498742         0.446582
 H         2.427748        -0.116187         1.959032
 H         3.270807        -1.252915         0.948399
 H         4.734388         2.260010        -0.000898
 H         5.131289         0.880665         1.130615
 H         3.301874         1.112229        -1.990956
 H         1.577106        -0.645421        -2.230873
 H         2.561176        -1.734789        -1.202003
