19
Iteration:  2620
 C         0.050886        -0.513650         0.301522
 C         1.449316        -0.145433         0.091852
 C         2.657085        -0.312376         1.029138
 C         3.080177         0.846594         0.187634
 C         4.625797         1.136218         0.271515
 O         4.781482         0.135399        -0.831422
 C         3.316998         0.351357        -1.278568
 C         2.189641        -0.686808        -1.321588
 O         1.633251         1.314180         0.043487
 H        -0.254905        -0.324452         1.338003
 H        -0.572113         0.282987        -0.245439
 H        -0.263928        -1.525744        -0.141761
 H         2.529885         0.139998         2.050275
 H         3.456460        -1.084006         0.932226
 H         5.005374         2.091762        -0.130509
 H         5.054101         0.862889         1.227068
 H         3.402058         1.134163        -2.006269
 H         1.471013        -0.604995        -2.177108
 H         2.420222        -1.796092        -1.445864
