19
Iteration:     3
 C         0.034197        -0.532854         0.311824
 C         1.464916        -0.149790         0.041849
 C         2.622908        -0.381439         0.986215
 C         3.109090         0.835361         0.204394
 C         4.608172         1.222380         0.170972
 O         4.753496         0.158731        -0.844654
 C         3.342802         0.314606        -1.205907
 C         2.138069        -0.644891        -1.321199
 O         1.740735         1.310381         0.153756
 H        -0.312168        -0.218140         1.250202
 H        -0.681875        -0.080189        -0.512806
 H        -0.078303        -1.660758         0.243734
 H         2.275468        -0.073313         1.970890
 H         3.188138        -1.271694         0.907725
 H         4.792389         2.218244        -0.299222
 H         5.211550         1.064844         1.012368
 H         3.255435         1.186369        -1.989836
 H         1.574184        -0.378985        -2.273190
 H         2.354230        -1.770663        -1.337099
