19
Iteration:  1325charge 0 multiplicity 1
 C        -0.109830        -0.529422         0.207229
 C         1.464549        -0.165664         0.064679
 C         2.583099        -0.450865         1.067270
 C         3.108753         0.787865         0.206832
 C         4.597382         1.259470         0.170586
 O         4.769914         0.211959        -0.903502
 C         3.319876         0.373023        -1.166485
 C         2.230151        -0.633571        -1.289975
 O         1.803057         1.273108         0.123524
 H        -0.345182         0.177878         1.092174
 H        -0.755459        -0.297835        -0.704010
 H        -0.072022        -1.472388         0.504549
 H         2.486125        -0.095766         2.126508
 H         3.101668        -1.399066         0.996690
 H         5.023717         2.108482        -0.323270
 H         5.138610         0.984525         1.088078
 H         3.216249         1.196418        -1.875018
 H         1.647653        -0.410816        -2.208670
 H         2.391310        -1.760410        -1.168098
