19
Iteration:   330
 C         0.011774        -0.682338         0.391578
 C         1.406069        -0.078006         0.018952
 C         2.524688        -0.404508         1.095834
 C         3.131633         0.752545         0.212192
 C         4.665128         1.177754         0.254342
 O         4.767040         0.204006        -0.903268
 C         3.358643         0.358542        -1.206137
 C         2.152116        -0.594372        -1.391897
 O         1.805587         1.419078         0.022698
 H        -0.387718        -0.393456         1.321091
 H        -0.935465        -0.618021        -0.328859
 H         0.285124        -1.809169         0.421404
 H         2.358325        -0.064003         2.095454
 H         2.764511        -1.439776         0.991297
 H         4.778810         2.228798        -0.210876
 H         5.294617         0.997292         1.027905
 H         3.220337         1.220289        -2.038764
 H         1.573774        -0.366090        -2.222297
 H         2.217685        -1.590338        -1.297771
