19
Iteration:  4070charge 0 multiplicity 1
 C        -0.016151        -0.494786         0.345921
 C         1.456834        -0.170149         0.006137
 C         2.584212        -0.355237         1.043093
 C         3.136605         0.834862         0.198371
 C         4.600992         1.203118         0.243262
 O         4.740921         0.157238        -0.861500
 C         3.375341         0.337241        -1.241352
 C         2.293102        -0.688603        -1.323275
 O         1.656888         1.326283         0.033172
 H        -0.171632        -0.149792         1.361857
 H        -0.667459        -0.061635        -0.414977
 H        -0.132201        -1.572809         0.423694
 H         2.323411        -0.055260         2.032132
 H         3.205985        -1.368957         0.954956
 H         4.979352         2.129100        -0.220580
 H         4.968425         0.903481         1.230874
 H         3.124553         1.222057        -1.876752
 H         1.435495        -0.619745        -2.080969
 H         2.723581        -1.676055        -1.257043
