19
Iteration:  4334
 C         0.080248        -0.468415         0.289443
 C         1.500222        -0.195967        -0.001882
 C         2.604448        -0.333355         1.027225
 C         3.088408         0.932025         0.179407
 C         4.642828         1.210391         0.226920
 O         4.784129         0.106558        -0.855825
 C         3.364199         0.331609        -1.180641
 C         2.169981        -0.704987        -1.289147
 O         1.592107         1.248451         0.028706
 H        -0.139888        -0.103473         1.312106
 H        -0.503130         0.180694        -0.333962
 H        -0.213463        -1.455372         0.054187
 H         2.263150         0.129531         2.023871
 H         3.169385        -1.233693         1.224404
 H         5.011676         2.211925        -0.096686
 H         5.307590         0.973177         1.180438
 H         3.312709         1.163541        -1.852334
 H         1.427133        -0.496895        -2.000395
 H         2.265633        -1.828594        -1.129388
