19
Iteration:  2301charge 0 multiplicity 1
 C        -0.002643        -0.531561         0.320308
 C         1.456762        -0.147530         0.038489
 C         2.615731        -0.385211         1.012693
 C         3.175532         0.805203         0.163761
 C         4.692440         1.209512         0.099811
 O         4.847699         0.090966        -0.711447
 C         3.329741         0.368081        -1.211294
 C         2.020833        -0.561026        -1.335702
 O         1.641514         1.294864         0.079455
 H        -0.365460        -0.312329         1.280504
 H        -0.516764        -0.041435        -0.415671
 H         0.017158        -1.641722         0.017634
 H         2.433825         0.047498         2.019301
 H         3.258108        -1.279901         1.025635
 H         4.784969         2.176481        -0.357902
 H         5.243046         1.162477         1.123111
 H         3.463610         1.104133        -2.091775
 H         1.241346        -0.463686        -2.092070
 H         2.477292        -1.535075        -1.278436
