19
Iteration:  4385
 C         0.087759        -0.598020         0.262603
 C         1.431953        -0.128376         0.017835
 C         2.529655        -0.321997         1.019261
 C         3.167240         0.828830         0.145368
 C         4.575364         1.286725         0.094949
 O         4.817739         0.052837        -0.710024
 C         3.312431         0.215451        -1.198684
 C         2.112510        -0.604167        -1.344476
 O         1.748574         1.431994         0.143455
 H        -0.250046        -0.344954         1.337108
 H        -0.664722        -0.320016        -0.531893
 H         0.172317        -1.696096         0.181540
 H         2.422455        -0.103469         2.051110
 H         3.024749        -1.292947         0.950722
 H         4.701214         2.288117        -0.266859
 H         5.032983         1.277701         1.017900
 H         3.546726         0.835805        -2.088967
 H         1.448790        -0.384742        -2.173004
 H         2.230620        -1.672781        -1.198960
