19
Iteration:  2395charge 0 multiplicity 1
 C        -0.007444        -0.445992         0.259053
 C         1.459156        -0.259727        -0.012762
 C         2.594358        -0.373126         1.098596
 C         3.122782         0.782213         0.219866
 C         4.620852         1.240295         0.181504
 O         4.791359         0.183754        -0.904253
 C         3.329487         0.344054        -1.193176
 C         2.118109        -0.659439        -1.276048
 O         1.739564         1.282936         0.094975
 H        -0.016195         0.086019         1.337404
 H        -0.632180         0.064225        -0.598792
 H        -0.219272        -1.518353         0.393469
 H         2.173633        -0.074238         2.069096
 H         3.165399        -1.326598         1.165729
 H         4.945685         2.214760        -0.261501
 H         5.027306         1.018194         1.149657
 H         3.354513         1.114442        -1.993008
 H         1.634104        -0.389966        -2.223554
 H         2.550927        -1.716121        -1.245799
