19
Iteration:  4368charge 0 multiplicity 1
 C        -0.063055        -0.635664         0.269600
 C         1.452333        -0.088112         0.004184
 C         2.661375        -0.318447         0.950172
 C         3.063465         0.901053         0.153828
 C         4.532682         1.314956         0.194793
 O         4.755216        -0.000762        -0.760491
 C         3.441191         0.267247        -1.229635
 C         2.130371        -0.667025        -1.279877
 O         1.789035         1.399567         0.151468
 H        -0.238605        -0.508774         1.312980
 H        -0.623832        -0.141276        -0.498843
 H        -0.079313        -1.723390         0.142706
 H         2.332382         0.146328         1.958028
 H         3.202289        -1.262749         1.168680
 H         4.783254         2.065257        -0.618552
 H         5.314828         1.318384         1.098515
 H         3.383949         1.116697        -1.908071
 H         1.650061        -0.404409        -2.252046
 H         2.273001        -1.792669        -1.239763
