19
Iteration:  2933charge 0 multiplicity 1
 C         0.007026        -0.532364         0.247955
 C         1.507909        -0.165619         0.045552
 C         2.553798        -0.330255         1.007133
 C         3.129538         0.837020         0.174520
 C         4.521379         1.257642         0.164303
 O         4.828269         0.114186        -0.820860
 C         3.400324         0.247661        -1.177381
 C         2.101047        -0.664287        -1.273411
 O         1.764625         1.380177         0.125954
 H        -0.386707        -0.213953         1.194473
 H        -0.460839        -0.298744        -0.747596
 H        -0.040757        -1.694367         0.316169
 H         2.448530         0.182759         1.982040
 H         3.041711        -1.341389         0.707064
 H         4.696437         2.219680        -0.218547
 H         5.093742         1.065126         1.179044
 H         3.175231         0.886676        -1.994946
 H         1.503269        -0.288105        -2.136826
 H         2.123597        -1.741015        -1.250732
