19
Iteration:  4014
 C         0.012676        -0.629840         0.286724
 C         1.466117        -0.127586         0.076532
 C         2.582602        -0.371690         0.989573
 C         3.131351         0.882631         0.235319
 C         4.570751         1.242377         0.082421
 O         4.817206         0.101301        -0.730360
 C         3.430471         0.265475        -1.203973
 C         2.088132        -0.514804        -1.265978
 O         1.709192         1.314780         0.039774
 H        -0.466037        -0.476713         1.214273
 H        -0.566357        -0.124414        -0.525229
 H        -0.007227        -1.720824         0.141248
 H         2.453574        -0.168971         2.083972
 H         3.064110        -1.441000         1.005991
 H         4.734884         2.148880        -0.585260
 H         5.150876         1.455888         0.944671
 H         3.636587         1.080840        -1.966801
 H         1.277907        -0.350062        -2.091568
 H         2.243591        -1.537425        -1.402070
