19
Iteration:  1289
 C         0.087930        -0.565294         0.270708
 C         1.411265        -0.114401        -0.056939
 C         2.494349        -0.408105         1.029448
 C         3.119409         0.831610         0.251514
 C         4.575961         1.200303         0.174310
 O         4.882906         0.221709        -0.906255
 C         3.344033         0.265950        -1.153366
 C         2.128073        -0.668467        -1.330723
 O         1.736458         1.385966         0.141962
 H        -0.117706        -0.128380         1.283134
 H        -0.736572        -0.371986        -0.317259
 H         0.001882        -1.660171         0.523396
 H         2.359407        -0.124475         2.101446
 H         3.156135        -1.353589         0.942845
 H         4.796391         2.154157        -0.015961
 H         5.071852         0.841335         1.163888
 H         3.190368         1.014502        -1.849837
 H         1.604668        -0.309271        -2.272900
 H         2.162606        -1.794732        -1.382881
