19
Iteration:   730
 C         0.039897        -0.739249         0.316461
 C         1.433568        -0.163892         0.063786
 C         2.528873        -0.340157         1.041651
 C         3.136895         0.827423         0.157756
 C         4.581884         1.259184         0.196662
 O         4.778530         0.061876        -0.846735
 C         3.355138         0.285229        -1.216577
 C         2.136895        -0.515634        -1.380335
 O         1.802799         1.466840         0.166262
 H        -0.414280        -0.675109         1.271094
 H        -0.691733        -0.207199        -0.431811
 H         0.043969        -1.889929        -0.082627
 H         2.304075         0.039397         2.043541
 H         3.116559        -1.260899         1.150364
 H         4.804920         2.158037        -0.509572
 H         5.162851         1.300207         1.228564
 H         3.455142         1.106201        -2.097997
 H         1.392396        -0.255360        -2.159989
 H         2.297663        -1.644340        -1.500079
