19
Iteration:  1249
 C         0.031304        -0.537967         0.261968
 C         1.494391        -0.226522         0.003000
 C         2.719547        -0.300034         0.984506
 C         3.065502         0.896795         0.138027
 C         4.596231         1.189911         0.140828
 O         4.820178         0.022525        -0.721989
 C         3.271287         0.410437        -1.239670
 C         2.173380        -0.594814        -1.343812
 O         1.596361         1.288239         0.199720
 H        -0.142373        -0.190933         1.384837
 H        -0.654310         0.117700        -0.381993
 H        -0.135805        -1.527830         0.093287
 H         2.376281        -0.102630         1.993416
 H         3.247033        -1.191886         0.816354
 H         5.006630         2.285328        -0.249459
 H         5.034548         0.884337         1.111177
 H         3.556672         1.158990        -2.048518
 H         1.486015        -0.370229        -2.154189
 H         2.662394        -1.612158        -1.369640
