19
Iteration:   249charge 0 multiplicity 1
 C         0.000833        -0.463841         0.265876
 C         1.470974        -0.121826        -0.041299
 C         2.682247        -0.409323         0.970839
 C         3.144829         0.787062         0.223027
 C         4.621426         1.333486         0.101590
 O         4.767286         0.189593        -0.817856
 C         3.321874         0.233638        -1.161800
 C         2.154378        -0.698102        -1.330128
 O         1.652549         1.290365         0.230670
 H        -0.220759        -0.199303         1.415591
 H        -0.585936         0.089675        -0.381653
 H        -0.185363        -1.534028         0.093548
 H         2.397797        -0.265946         2.051480
 H         3.251558        -1.402898         0.881490
 H         4.817789         2.315242        -0.278940
 H         5.263769         1.137263         1.078722
 H         3.344496         0.984830        -2.084755
 H         1.512814        -0.413725        -2.201954
 H         2.253322        -1.840388        -1.339927
