19
Iteration:    54
 C        -0.050321        -0.569791         0.261098
 C         1.461307        -0.187550         0.127585
 C         2.627706        -0.340536         1.029348
 C         3.154595         0.833776         0.182556
 C         4.666301         1.233185         0.197985
 O         4.738921         0.127022        -0.862012
 C         3.341137         0.408778        -1.239549
 C         2.178132        -0.665795        -1.312973
 O         1.692759         1.309483         0.121146
 H        -0.561307        -0.601208         1.282051
 H        -0.561897         0.087373        -0.316885
 H        -0.196808        -1.503613        -0.238724
 H         2.490257         0.133007         2.017220
 H         3.183748        -1.316188         0.934934
 H         4.843557         2.226366        -0.234357
 H         5.330988         0.971978         1.098164
 H         3.331711         1.075743        -2.029526
 H         1.543875        -0.460977        -2.130565
 H         2.468296        -1.659423        -1.306355
