19
Iteration:   538
 C         0.080481        -0.599682         0.372993
 C         1.468779        -0.235182        -0.056335
 C         2.588928        -0.387873         0.983237
 C         3.108609         0.773712         0.115083
 C         4.604766         1.202214         0.208861
 O         4.880756         0.161794        -0.770675
 C         3.348948         0.316143        -1.165626
 C         2.028444        -0.536287        -1.457658
 O         1.681981         1.379428         0.179189
 H        -0.010830        -0.291247         1.467542
 H        -0.665023        -0.031446        -0.245203
 H        -0.113297        -1.668297         0.248212
 H         2.330479        -0.121831         2.009771
 H         3.190773        -1.313004         0.992385
 H         4.807926         2.254992        -0.256051
 H         5.084166         1.019676         1.156474
 H         3.321150         1.175647        -1.897182
 H         1.511263        -0.041420        -2.257322
 H         2.121736        -1.558979        -1.588470
