19
Iteration:  4250
 C        -0.026482        -0.502923         0.257525
 C         1.495654        -0.262263         0.063332
 C         2.636776        -0.335629         1.083169
 C         3.062209         0.855292         0.111793
 C         4.639198         1.299396         0.186633
 O         4.726224         0.048672        -0.772256
 C         3.311264         0.336165        -1.244552
 C         2.227784        -0.615541        -1.298727
 O         1.747771         1.291159         0.091824
 H        -0.462230         0.119216         1.032621
 H        -0.372423        -0.207268        -0.772247
 H        -0.446670        -1.529577         0.513317
 H         2.358257        -0.045992         2.137561
 H         3.314878        -1.192126         1.129454
 H         4.809808         2.162420        -0.447708
 H         5.285759         1.261622         1.066581
 H         3.143913         1.132004        -2.047617
 H         1.328670        -0.336002        -1.958726
 H         2.627509        -1.620586        -1.501325
