19
Iteration:   342
 C         0.005500        -0.627134         0.393076
 C         1.399788        -0.125078         0.034021
 C         2.558991        -0.345712         0.985179
 C         3.126050         0.837737         0.178177
 C         4.568975         1.178490         0.225636
 O         4.769272         0.136330        -0.879666
 C         3.374571         0.401776        -1.221296
 C         2.136633        -0.604493        -1.375778
 O         1.809044         1.316065         0.106865
 H        -0.307267        -0.412143         1.413828
 H        -0.735280        -0.368733        -0.477971
 H         0.167646        -1.739834         0.371697
 H         2.314267         0.050197         1.951637
 H         3.157741        -1.245510         1.118064
 H         4.919483         2.198475        -0.096075
 H         5.064567         0.890862         1.115231
 H         3.324763         1.365938        -1.899662
 H         1.554128        -0.515189        -2.266558
 H         2.567480        -1.565159        -1.325158
