19
Iteration:  4493
 C        -0.032315        -0.524922         0.177051
 C         1.413118        -0.164260         0.031667
 C         2.624972        -0.366859         1.130149
 C         3.154163         0.797215         0.200243
 C         4.659415         1.296286         0.104603
 O         4.817904         0.114300        -0.819934
 C         3.331702         0.292635        -1.137068
 C         2.087916        -0.643371        -1.272163
 O         1.747859         1.289845         0.109205
 H        -0.342371        -0.232072         1.183924
 H        -0.626718         0.060054        -0.514086
 H        -0.092116        -1.564629         0.013939
 H         2.193410         0.211191         1.935892
 H         3.154035        -1.299637         1.307259
 H         4.650222         2.184481        -0.597122
 H         5.286380         1.379589         0.961795
 H         3.375475         1.062113        -1.929940
 H         1.593039        -0.297144        -2.201650
 H         2.219611        -1.735231        -1.424581
