19
Iteration:  3480charge 0 multiplicity 1
 C         0.022112        -0.509388         0.378680
 C         1.391839        -0.058255        -0.002972
 C         2.639997        -0.312295         0.941694
 C         3.072548         0.887422         0.105333
 C         4.629107         1.251762         0.270548
 O         4.705037         0.065494        -0.768766
 C         3.373828         0.315876        -1.252904
 C         2.272917        -0.754280        -1.382241
 O         1.650945         1.313900         0.139723
 H        -0.205355        -0.189036         1.464842
 H        -0.639984         0.063288        -0.299796
 H        -0.066728        -1.567301         0.279335
 H         2.235249        -0.044876         2.037556
 H         3.169123        -1.211028         1.212024
 H         4.985367         2.060536        -0.318426
 H         5.244108         1.067726         1.166845
 H         3.423670         1.035089        -2.158913
 H         2.106758        -0.804953        -2.542167
 H         2.541887        -1.846017        -1.301158
