19
Iteration:  2080charge 0 multiplicity 1
 C         0.023091        -0.609525         0.224066
 C         1.473993        -0.076381         0.056155
 C         2.516261        -0.391186         1.109858
 C         3.171194         0.791464         0.187927
 C         4.552580         1.244780         0.085180
 O         4.873583         0.098165        -0.832549
 C         3.360898         0.260438        -1.119433
 C         2.096923        -0.554199        -1.360299
 O         1.745139         1.375307         0.113298
 H        -0.145461        -0.323914         1.328701
 H        -0.707946        -0.122005        -0.413521
 H         0.114277        -1.660004        -0.002928
 H         2.305996        -0.034936         2.135005
 H         2.784084        -1.497384         1.117728
 H         4.540609         2.206701        -0.392010
 H         5.306399         1.108184         1.014223
 H         3.192382         1.252027        -1.759668
 H         1.441861        -0.335369        -2.223316
 H         2.262826        -1.670832        -1.325451
