19
Iteration:  3570
 C         0.005563        -0.491264         0.221244
 C         1.451546        -0.132078        -0.000468
 C         2.576331        -0.377398         1.016365
 C         3.101164         0.886958         0.200195
 C         4.622993         1.208031         0.160859
 O         4.689803         0.149892        -0.846292
 C         3.298257         0.343718        -1.133429
 C         2.286675        -0.756997        -1.233519
 O         1.723747         1.331394         0.092624
 H        -0.401726         0.023314         1.053836
 H        -0.734286        -0.118773        -0.478578
 H        -0.029668        -1.535262         0.540698
 H         2.452818        -0.208873         2.057562
 H         3.283610        -1.305338         0.915172
 H         4.974513         2.086240        -0.258527
 H         5.307620         1.003711         1.067384
 H         3.133119         1.126010        -1.997237
 H         1.950582        -0.689669        -2.334420
 H         2.656515        -1.768549        -1.110313
