19
Iteration:  3084charge 0 multiplicity 1
 C        -0.021565        -0.452492         0.299445
 C         1.473883        -0.198483         0.041599
 C         2.640400        -0.331922         0.977532
 C         3.012565         0.826557         0.147498
 C         4.584154         1.122476         0.193264
 O         4.840449         0.161648        -0.854742
 C         3.365671         0.326948        -1.171900
 C         2.223799        -0.706261        -1.315722
 O         1.690346         1.404575         0.136967
 H        -0.544319         0.236366         0.964122
 H        -0.574269        -0.360264        -0.698969
 H        -0.053337        -1.573821         0.649969
 H         2.379811        -0.242169         1.987983
 H         3.222995        -1.266335         0.951092
 H         4.764199         2.223548        -0.142006
 H         5.036309         0.829880         1.247505
 H         3.274073         0.948336        -2.144909
 H         1.404886        -0.687345        -2.165394
 H         2.579787        -1.721773        -1.054191
