19
Iteration:  2453
 C         0.052136        -0.581678         0.274899
 C         1.427786        -0.173064         0.074977
 C         2.569975        -0.334203         0.999234
 C         3.185897         0.787112         0.218043
 C         4.614810         1.240838         0.104536
 O         4.793902         0.121983        -0.747282
 C         3.396074         0.333681        -1.234364
 C         2.057266        -0.611137        -1.291387
 O         1.724822         1.345781         0.096508
 H        -0.334891        -0.472389         1.308020
 H        -0.475252         0.196809        -0.250951
 H        -0.240609        -1.637879        -0.113765
 H         2.295454        -0.093354         1.994099
 H         3.054920        -1.255949         0.973586
 H         4.688717         2.175261        -0.385005
 H         5.342478         1.191936         0.985045
 H         3.384689         0.990259        -2.044817
 H         1.399196        -0.365916        -2.185486
 H         2.268697        -1.669930        -1.441879
