19
Iteration:  1673
 C        -0.071510        -0.566963         0.259551
 C         1.406570        -0.207837        -0.043631
 C         2.530321        -0.366629         1.037498
 C         3.155062         0.825339         0.308905
 C         4.626098         1.201563         0.208702
 O         4.895572         0.192516        -0.959887
 C         3.365759         0.328674        -1.129498
 C         2.147318        -0.638952        -1.328978
 O         1.735146         1.374203         0.136379
 H        -0.477206         0.089035         1.096800
 H        -0.851567        -0.452986        -0.653371
 H        -0.125068        -1.687438         0.513737
 H         2.324556        -0.079071         2.069833
 H         3.171780        -1.289052         1.024034
 H         4.820965         2.135528        -0.323767
 H         5.320452         0.923399         1.127028
 H         3.258090         1.150870        -1.919223
 H         1.540979        -0.547665        -2.138968
 H         2.342502        -1.725509        -1.200734
