19
Iteration:  1057
 C         0.115108        -0.498299         0.303799
 C         1.524526        -0.252215        -0.050768
 C         2.631970        -0.327733         0.859796
 C         3.014771         0.920467         0.119246
 C         4.611702         1.133882         0.230673
 O         4.745238         0.194271        -0.739043
 C         3.383861         0.379022        -1.198740
 C         2.118928        -0.691946        -1.297484
 O         1.646514         1.321899         0.182230
 H         0.038626        -0.288271         1.265486
 H        -0.510661         0.201923        -0.228413
 H        -0.031944        -1.590369         0.068508
 H         2.245140        -0.216730         1.946433
 H         3.329528        -1.223679         0.682904
 H         5.060432         2.076247        -0.055494
 H         4.947015         0.569235         1.308179
 H         3.351269         0.955445        -2.065039
 H         1.363388        -0.449792        -2.163363
 H         2.451192        -1.762916        -1.273886
