19
Iteration:  2259charge 0 multiplicity 1
 C         0.036943        -0.499472         0.372822
 C         1.407926        -0.137984         0.023741
 C         2.610595        -0.398853         0.926685
 C         3.117218         0.770116         0.192892
 C         4.559334         1.212198         0.203885
 O         4.814432         0.152461        -0.782789
 C         3.340672         0.274316        -1.214536
 C         2.142853        -0.651491        -1.307449
 O         1.752978         1.419110         0.029570
 H        -0.187149        -0.544328         1.373226
 H        -0.722036         0.054361        -0.122052
 H        -0.129772        -1.596761         0.129993
 H         2.300525        -0.142728         1.973405
 H         3.062048        -1.430154         0.915097
 H         4.815589         2.229757        -0.068203
 H         5.211698         0.871515         0.999947
 H         3.288433         1.149995        -1.936499
 H         1.655885        -0.439366        -2.202087
 H         2.368808        -1.636349        -1.218683
