19
Iteration:  3725
 C         0.017309        -0.544248         0.307512
 C         1.414507        -0.157381        -0.015664
 C         2.511645        -0.313643         1.064112
 C         3.058144         0.746540         0.251006
 C         4.547307         1.207536         0.190407
 O         4.842676         0.150416        -0.904484
 C         3.354358         0.330328        -1.216438
 C         2.188036        -0.688881        -1.313585
 O         1.826182         1.377595         0.100689
 H        -0.306647        -0.127383         1.319448
 H        -0.753185        -0.282911        -0.475215
 H         0.011874        -1.644243         0.287948
 H         2.178960         0.297162         1.941513
 H         3.236436        -1.196530         1.096792
 H         4.651945         2.169022        -0.260448
 H         5.181588         1.119324         1.142452
 H         3.205847         1.090438        -2.044087
 H         1.757319        -0.597660        -2.307720
 H         2.369951        -1.755937        -0.879623
