19
Iteration:  3426
 C        -0.024434        -0.550254         0.227270
 C         1.397372        -0.098787         0.058728
 C         2.530230        -0.329898         1.090819
 C         3.157661         0.791114         0.216055
 C         4.604243         1.311135         0.118012
 O         4.891189         0.130202        -0.901758
 C         3.400443         0.237893        -1.151626
 C         2.136807        -0.717602        -1.256313
 O         1.695195         1.336704         0.104611
 H        -0.650957         0.005474         0.979550
 H        -0.600806        -0.248033        -0.636623
 H        -0.013498        -1.574050         0.495423
 H         2.350038         0.025055         2.196646
 H         2.966894        -1.304295         0.957082
 H         4.833904         2.358344        -0.047772
 H         5.364670         0.937654         0.934386
 H         3.335966         1.100600        -1.933965
 H         1.740192        -0.192611        -2.191441
 H         2.193962        -1.821809        -1.461903
