19
Iteration:  4067
 C         0.017558        -0.481689         0.327442
 C         1.466764        -0.191146         0.034729
 C         2.580092        -0.363767         1.013904
 C         3.109982         0.838894         0.169136
 C         4.600508         1.207776         0.254766
 O         4.738958         0.138278        -0.852361
 C         3.351109         0.333243        -1.255475
 C         2.294818        -0.686694        -1.306783
 O         1.650538         1.342180         0.054135
 H        -0.064161        -0.199971         1.350647
 H        -0.638163        -0.036633        -0.437522
 H        -0.102478        -1.578888         0.472331
 H         2.280217        -0.003207         2.030933
 H         3.207128        -1.298984         1.010097
 H         5.005296         2.228429        -0.187689
 H         4.981266         0.875050         1.202633
 H         3.193340         1.252515        -1.888896
 H         1.497259        -0.634767        -2.202489
 H         2.682161        -1.687414        -1.264311
