19
Iteration:  4509
 C         0.065810        -0.459332         0.219117
 C         1.514376        -0.194766         0.072650
 C         2.598579        -0.278936         1.049840
 C         3.122258         0.868647         0.223542
 C         4.570172         1.281186         0.083728
 O         4.764153         0.045885        -0.763975
 C         3.356599         0.288576        -1.230609
 C         2.169908        -0.657723        -1.350722
 O         1.673450         1.292591         0.150524
 H        -0.432388        -0.492517         1.273260
 H        -0.427751         0.196070        -0.577525
 H        -0.182104        -1.541008        -0.105534
 H         2.317958        -0.106191         2.128728
 H         3.174954        -1.255655         1.041694
 H         4.825077         2.171073        -0.455399
 H         5.221642         0.942747         0.981187
 H         3.284932         1.180304        -1.910950
 H         1.362521        -0.480580        -2.056899
 H         2.409017        -1.720751        -1.138025
