19
Iteration:  2946
 C         0.066277        -0.549459         0.279221
 C         1.398286        -0.097471         0.042868
 C         2.615041        -0.365431         1.011652
 C         3.135456         0.777001         0.174347
 C         4.602025         1.251485         0.205133
 O         4.883934         0.147375        -0.790282
 C         3.339382         0.252718        -1.191681
 C         2.019402        -0.607261        -1.286779
 O         1.730270         1.317800         0.006799
 H        -0.335365        -0.182795         1.218870
 H        -0.674525        -0.093814        -0.410940
 H         0.018412        -1.638063         0.187954
 H         2.227731        -0.074308         2.071291
 H         3.148907        -1.344242         1.275071
 H         4.691394         2.231823        -0.307280
 H         5.244178         1.215279         1.143779
 H         3.502584         1.084888        -1.880618
 H         1.345071        -0.408761        -2.115519
 H         2.225612        -1.690435        -1.295648
