19
Iteration:  3741charge 0 multiplicity 1
 C        -0.054842        -0.504125         0.251501
 C         1.433338        -0.155630         0.035681
 C         2.552265        -0.387379         1.036029
 C         3.162773         0.833353         0.181643
 C         4.630006         1.226286         0.104793
 O         4.781184         0.153118        -0.863479
 C         3.389453         0.316339        -1.186049
 C         2.244188        -0.704001        -1.253859
 O         1.684767         1.356759         0.143853
 H        -0.250222         0.020595         1.172487
 H        -0.616095        -0.295625        -0.656329
 H        -0.317980        -1.555015         0.490435
 H         2.277974        -0.129959         2.093067
 H         2.940442        -1.386297         1.097410
 H         4.673184         2.266700        -0.369565
 H         5.231316         1.073259         0.991214
 H         3.314598         1.153090        -1.874515
 H         1.585129        -0.701631        -2.161689
 H         2.748379        -1.617337        -1.134376
