19
Iteration:  1939
 C         0.001472        -0.532202         0.227215
 C         1.473783        -0.200713         0.032658
 C         2.775400        -0.377681         0.993842
 C         3.077452         0.934561         0.114795
 C         4.623120         1.225765         0.207978
 O         4.704165         0.044632        -0.771287
 C         3.328899         0.350860        -1.212046
 C         2.159367        -0.640548        -1.282356
 O         1.636225         1.386713         0.132287
 H        -0.293007        -0.482829         1.379151
 H        -0.642969         0.087661        -0.448859
 H        -0.292634        -1.602934        -0.095128
 H         2.514213        -0.287016         2.064953
 H         3.443219        -1.191363         0.622119
 H         5.163969         2.104504        -0.191041
 H         5.130806         1.027903         1.243632
 H         3.348799         1.176402        -1.854848
 H         1.678287        -0.755224        -2.226118
 H         2.548275        -1.613797        -1.081063
