19
Iteration:  2189charge 0 multiplicity 1
 C         0.043184        -0.583256         0.215654
 C         1.372696        -0.013275        -0.021564
 C         2.518859        -0.480474         1.002028
 C         3.225042         0.766459         0.210829
 C         4.633459         1.257332         0.135495
 O         4.808944         0.156449        -0.868753
 C         3.278979         0.260455        -1.140568
 C         2.108295        -0.592919        -1.236132
 O         1.799629         1.370741         0.152089
 H        -0.594435        -0.188888         1.091537
 H        -0.575025        -0.512055        -0.668244
 H        -0.000139        -1.583434         0.510848
 H         2.291110        -0.090453         1.986739
 H         3.097873        -1.400152         1.084396
 H         4.740053         2.253414        -0.271050
 H         5.390893         1.245397         1.057187
 H         3.333375         1.149920        -1.877593
 H         1.590467        -0.459015        -2.252366
 H         2.153834        -1.736393        -1.012706
