19
Iteration:  1636charge 0 multiplicity 1
 C         0.089140        -0.477408         0.241762
 C         1.472644        -0.106909         0.027974
 C         2.688060        -0.371869         0.991170
 C         3.053167         0.890394         0.203331
 C         4.534317         1.126610         0.295348
 O         4.732161         0.080721        -0.875101
 C         3.341112         0.397396        -1.267845
 C         2.181927        -0.632358        -1.288966
 O         1.658800         1.258420         0.143736
 H        -0.258069         0.023155         1.238897
 H        -0.455677        -0.142947        -0.618013
 H         0.025615        -1.664277         0.413410
 H         2.509876        -0.075851         2.043911
 H         3.374929        -1.190684         0.866360
 H         4.982850         2.166133        -0.097091
 H         5.043591         1.028076         1.201986
 H         3.450899         1.221567        -2.101245
 H         1.522353        -0.531299        -2.328717
 H         2.542739        -1.691235        -1.178636
