19
Iteration:   867
 C         0.100660        -0.553215         0.220056
 C         1.556459        -0.210496         0.067394
 C         2.740166        -0.391188         0.949107
 C         3.047379         0.909508         0.163753
 C         4.572375         1.208955         0.160234
 O         4.628617         0.067130        -0.732163
 C         3.316290         0.410273        -1.209224
 C         2.156718        -0.577459        -1.278827
 O         1.694353         1.315724         0.135925
 H        -0.510053        -0.221127         1.141307
 H        -0.314073        -0.089602        -0.652075
 H        -0.034958        -1.559528         0.069952
 H         2.561385        -0.105928         1.981939
 H         3.356377        -1.302310         0.935250
 H         4.979040         2.065763        -0.311778
 H         5.016498         0.952261         1.066365
 H         3.298994         1.073578        -2.087518
 H         1.499892        -0.385668        -2.094071
 H         2.419967        -1.627415        -1.201020
