19
Iteration:  3230charge 0 multiplicity 1
 C        -0.074229        -0.498177         0.377120
 C         1.375521        -0.143141        -0.053881
 C         2.479478        -0.345740         1.028083
 C         3.094931         0.781268         0.219180
 C         4.568464         1.238343         0.162569
 O         4.867841         0.148346        -0.888010
 C         3.421681         0.289197        -1.203748
 C         2.300013        -0.705054        -1.339711
 O         1.758452         1.368594         0.134399
 H        -0.326454         0.107714         1.310137
 H        -0.741596        -0.309103        -0.452304
 H        -0.233948        -1.569760         0.427221
 H         2.219609         0.021814         2.061520
 H         2.940325        -1.314308         1.010623
 H         4.699398         2.100056        -0.406154
 H         5.280390         1.133096         1.069215
 H         3.211159         1.130360        -1.815516
 H         1.735441        -0.762498        -2.222511
 H         2.537025        -1.724636        -1.031449
