19
Iteration:  1138charge 0 multiplicity 1
 C        -0.023769        -0.507943         0.174080
 C         1.414847        -0.139556         0.047259
 C         2.668550        -0.419264         1.029942
 C         3.100136         0.802558         0.174587
 C         4.605369         1.179198         0.223789
 O         4.764831         0.206317        -0.863875
 C         3.291000         0.393648        -1.215937
 C         2.222132        -0.686348        -1.289396
 O         1.742838         1.307268         0.197496
 H        -0.625051         0.058658         1.076949
 H        -0.658017        -0.362368        -0.714394
 H        -0.119185        -1.539751         0.425113
 H         2.488391        -0.096153         2.040373
 H         3.244945        -1.334691         0.961461
 H         4.911299         2.211641        -0.158733
 H         5.212298         1.027469         1.142581
 H         3.222708         1.064772        -2.154408
 H         1.636540        -0.471600        -2.228785
 H         2.550956        -1.758660        -1.284370
