19
Iteration:  3427
 C        -0.030772        -0.549858         0.229592
 C         1.405752        -0.097644         0.056971
 C         2.524669        -0.326507         1.088517
 C         3.169239         0.797260         0.218042
 C         4.605761         1.315487         0.124104
 O         4.887343         0.132591        -0.899022
 C         3.398186         0.236881        -1.149648
 C         2.130186        -0.722472        -1.256899
 O         1.696243         1.329476         0.096481
 H        -0.668630        -0.009240         0.974610
 H        -0.611542        -0.235551        -0.636787
 H         0.015519        -1.576387         0.497770
 H         2.395765         0.004802         2.175319
 H         2.986964        -1.310871         0.965783
 H         4.846170         2.360615        -0.041379
 H         5.401029         0.915274         0.949612
 H         3.318901         1.099879        -1.927148
 H         1.702602        -0.202068        -2.198477
 H         2.169687        -1.797051        -1.474468
