19
Iteration:  3732
 C        -0.027191        -0.552511         0.280302
 C         1.430517        -0.172750        -0.017270
 C         2.552180        -0.328684         1.049736
 C         3.100599         0.803626         0.217041
 C         4.527527         1.191803         0.178523
 O         4.835355         0.145558        -0.898161
 C         3.366143         0.304425        -1.216785
 C         2.244819        -0.645232        -1.267089
 O         1.763904         1.373114         0.128634
 H        -0.392713        -0.007702         1.103878
 H        -0.752764        -0.080962        -0.384747
 H        -0.084889        -1.649078         0.489193
 H         2.250997         0.083066         1.959874
 H         2.928722        -1.364530         1.172246
 H         4.628297         2.193945        -0.313632
 H         5.417759         1.146949         0.902619
 H         3.279519         1.135711        -1.891145
 H         1.654295        -0.846356        -2.245722
 H         2.478837        -1.634909        -1.004360
