19
Iteration:  3918
 C         0.018864        -0.531131         0.211252
 C         1.443979        -0.219517         0.063217
 C         2.534019        -0.353204         1.123731
 C         3.146569         0.761669         0.187571
 C         4.531371         1.230629         0.123389
 O         4.846605         0.180243        -0.893124
 C         3.365616         0.270810        -1.184257
 C         2.167950        -0.643166        -1.328799
 O         1.758146         1.368205         0.155116
 H        -0.229632         0.044539         1.141532
 H        -0.742948        -0.085097        -0.518510
 H        -0.062490        -1.634743         0.466070
 H         2.005844         0.106489         1.934086
 H         2.992016        -1.416517         1.410476
 H         4.632651         2.195014        -0.353882
 H         5.258164         1.287142         1.012568
 H         3.310997         1.213043        -1.866285
 H         1.527591        -0.487948        -2.284258
 H         2.464568        -1.710504        -1.316038
