19
Iteration:  1849charge 0 multiplicity 1
 C         0.005325        -0.431228         0.217510
 C         1.471723        -0.342647         0.010045
 C         2.654302        -0.324671         0.960536
 C         3.075993         0.879695         0.133418
 C         4.612373         1.221531         0.172216
 O         4.763706         0.128112        -0.803627
 C         3.322143         0.369593        -1.221921
 C         2.167314        -0.712167        -1.307096
 O         1.745028         1.330755         0.263626
 H        -0.470952         0.249932         0.848151
 H        -0.463675        -0.369626        -0.849763
 H        -0.292058        -1.408517         0.484326
 H         2.314339        -0.029499         1.936880
 H         3.343234        -1.137688         0.955771
 H         4.801014         2.192035        -0.140920
 H         5.052674         0.964138         1.235838
 H         3.160139         1.085446        -1.920499
 H         1.472770        -0.611124        -2.096478
 H         2.562195        -1.717825        -1.213249
