19
Iteration:  3698
 C         0.043803        -0.585118         0.317210
 C         1.439351        -0.145637         0.058294
 C         2.588955        -0.306896         1.015373
 C         3.053509         0.846123         0.198126
 C         4.683453         1.192262         0.223022
 O         4.836576         0.177630        -0.820478
 C         3.356413         0.271288        -1.203185
 C         2.106764        -0.646583        -1.267989
 O         1.684539         1.342756        -0.020062
 H        -0.146411        -0.341543         1.347585
 H        -0.571773        -0.153339        -0.477268
 H        -0.212423        -1.656303         0.174968
 H         2.389769         0.083575         2.016935
 H         3.053995        -1.276389         0.922152
 H         5.011223         2.204299        -0.204024
 H         5.249617         0.882368         1.130331
 H         3.303739         0.878764        -2.077352
 H         1.573459        -0.299806        -2.195749
 H         2.071961        -1.667776        -1.109091
