19
Iteration:   518
 C        -0.020599        -0.652222         0.340159
 C         1.415554        -0.091510        -0.009854
 C         2.566080        -0.454474         1.010853
 C         3.159880         0.779750         0.289497
 C         4.546162         1.303378         0.119790
 O         4.830892         0.124525        -0.767886
 C         3.400325         0.301339        -1.226948
 C         2.069383        -0.479716        -1.428725
 O         1.829918         1.290783         0.162351
 H        -0.315839        -0.190302         1.419297
 H        -0.765110        -0.377373        -0.412858
 H         0.179032        -1.674942         0.315967
 H         2.119705        -0.308232         1.996834
 H         3.059189        -1.436308         1.024346
 H         4.422705         2.222660        -0.551909
 H         5.285965         1.478283         0.989798
 H         3.557483         1.093606        -2.143764
 H         1.545966         0.042768        -2.191508
 H         2.030817        -1.494807        -1.715736
