19
Iteration:  1093
 C        -0.031318        -0.580778         0.284198
 C         1.400443        -0.138658         0.102576
 C         2.565972        -0.430008         1.009984
 C         3.133939         0.790918         0.215679
 C         4.592253         1.252090         0.111744
 O         4.783147         0.143584        -0.759239
 C         3.389364         0.388423        -1.221172
 C         2.189594        -0.535426        -1.365352
 O         1.800408         1.271159         0.073861
 H        -0.508318        -0.546860         1.371509
 H        -0.774583        -0.255525        -0.385152
 H        -0.028601        -1.652076         0.141571
 H         2.367332        -0.079783         2.020783
 H         2.930960        -1.481706         1.031793
 H         4.645054         2.295985        -0.256820
 H         5.209017         1.218762         1.051098
 H         3.440606         1.343848        -1.863826
 H         1.435701        -0.308687        -2.193507
 H         2.396178        -1.646497        -1.430635
