19
Iteration:  3930charge 0 multiplicity 1
 C        -0.000240        -0.472010         0.272189
 C         1.468646        -0.234851        -0.015069
 C         2.533981        -0.318332         1.101185
 C         3.079018         0.817105         0.243657
 C         4.612368         1.208000         0.164247
 O         4.804960         0.250159        -0.911780
 C         3.367828         0.274001        -1.194618
 C         2.198999        -0.729779        -1.299003
 O         1.743213         1.314437         0.128451
 H        -0.373834         0.079219         1.198162
 H        -0.572911        -0.238129        -0.690746
 H        -0.268585        -1.572234         0.381386
 H         2.493320         0.155052         2.044760
 H         3.106519        -1.343641         1.237130
 H         4.783213         2.235843        -0.147816
 H         5.151766         0.812535         1.126512
 H         3.242448         0.902878        -2.122412
 H         1.563503        -0.271428        -2.123518
 H         2.307014        -1.839148        -1.469696
