19
Iteration:  3550
 C        -0.039718        -0.547215         0.244537
 C         1.458487        -0.202048         0.038223
 C         2.560160        -0.349390         1.015910
 C         3.101915         0.839206         0.205820
 C         4.613779         1.260658         0.116250
 O         4.884066         0.092087        -0.808496
 C         3.356063         0.348866        -1.213144
 C         2.149686        -0.687886        -1.291885
 O         1.701846         1.389599         0.146572
 H        -0.484024        -0.163071         1.126564
 H        -0.549880        -0.144162        -0.648287
 H        -0.204159        -1.657339         0.292052
 H         2.385144         0.029966         1.948542
 H         3.204680        -1.239611         1.170776
 H         4.651767         2.266972        -0.273853
 H         5.281509         1.129664         1.047438
 H         3.460688         1.055450        -2.058891
 H         1.536216        -0.722440        -2.166157
 H         2.269155        -1.725192        -1.062166
