19
Iteration:  2376
 C        -0.063566        -0.482677         0.316218
 C         1.402140        -0.114828         0.077817
 C         2.573544        -0.365745         1.041344
 C         3.143648         0.772894         0.284233
 C         4.646225         1.157496         0.181121
 O         4.853231         0.254686        -0.926977
 C         3.359933         0.257938        -1.096204
 C         2.159893        -0.700687        -1.394551
 O         1.707704         1.323890         0.031676
 H        -0.538026        -0.045890         1.226222
 H        -0.431916        -0.246070        -0.640379
 H         0.097392        -1.562126         0.605937
 H         2.320314        -0.080690         2.047862
 H         3.069259        -1.295073         1.021269
 H         4.708506         2.158249        -0.216722
 H         5.521207         1.038312         0.939760
 H         3.041998         1.060889        -1.692356
 H         1.675617        -0.257700        -2.358026
 H         2.227669        -1.835620        -1.359571
