19
Iteration:  1776charge 0 multiplicity 1
 C         0.031510        -0.626985         0.356160
 C         1.374036        -0.173250         0.039902
 C         2.541720        -0.312735         1.001318
 C         3.071339         0.861743         0.215841
 C         4.551047         1.187273         0.194064
 O         4.841654         0.147093        -0.836189
 C         3.433052         0.255130        -1.147289
 C         2.137609        -0.646904        -1.432288
 O         1.805026         1.429028         0.090074
 H        -0.213113        -0.573754         1.446061
 H        -0.738361        -0.049435        -0.206444
 H        -0.086753        -1.685112         0.063014
 H         2.149017        -0.033216         2.017933
 H         3.094549        -1.296095         0.961234
 H         4.898603         2.178198        -0.209682
 H         5.080828         0.981387         1.137499
 H         3.180832         1.003278        -1.958957
 H         1.638384        -0.084507        -2.298595
 H         2.298163        -1.704360        -1.574214
