19
Iteration:  3344
 C        -0.015719        -0.563425         0.403832
 C         1.467047        -0.138053         0.020304
 C         2.527047        -0.328195         1.045268
 C         3.148035         0.848417         0.135846
 C         4.635574         1.306360         0.236518
 O         4.836787         0.135235        -0.761192
 C         3.323674         0.227618        -1.243371
 C         2.102342        -0.654077        -1.377015
 O         1.758086         1.330529         0.012383
 H        -0.335352        -0.423090         1.435174
 H        -0.737887        -0.077717        -0.333525
 H        -0.208567        -1.639568         0.011957
 H         2.515958         0.224913         1.988977
 H         2.965787        -1.398140         1.347741
 H         4.954432         2.278790        -0.167755
 H         5.113186         0.871035         1.040056
 H         3.422434         0.916557        -2.038263
 H         1.683944        -0.359237        -2.362251
 H         2.182323        -1.744989        -1.426123
