19
Iteration:   461
 C         0.018598        -0.502970         0.228599
 C         1.461238        -0.222908         0.133896
 C         2.658784        -0.364811         1.042333
 C         3.077522         0.845546         0.153590
 C         4.614985         1.071251         0.240607
 O         4.747520         0.246800        -0.975237
 C         3.278646         0.429963        -1.205342
 C         2.241685        -0.653178        -1.315679
 O         1.693310         1.266534         0.171408
 H        -0.296981         0.055792         1.114047
 H        -0.476010        -0.059289        -0.702961
 H        -0.329889        -1.553394         0.414668
 H         2.497055         0.161351         1.974774
 H         3.070664        -1.372233         1.134101
 H         5.192929         2.096651         0.147314
 H         4.936887         0.617936         1.125995
 H         3.096987         1.167800        -2.094424
 H         1.609059        -0.538056        -2.151486
 H         2.752976        -1.542110        -1.267383
