19
Iteration:  4262
 C         0.001369        -0.470794         0.228852
 C         1.450295        -0.291882         0.081653
 C         2.661290        -0.357647         1.093756
 C         3.155721         0.868425         0.240276
 C         4.572761         1.299489         0.127750
 O         4.761320         0.097316        -0.821429
 C         3.374704         0.327139        -1.170916
 C         2.079164        -0.715696        -1.322309
 O         1.722341         1.350444         0.093100
 H        -0.499820         0.228519         0.888639
 H        -0.537265        -0.336106        -0.770745
 H        -0.096560        -1.605714         0.432844
 H         2.351272         0.010553         2.074654
 H         3.208121        -1.320957         1.095374
 H         4.818045         2.237197        -0.394901
 H         5.184028         1.176791         0.974602
 H         3.496965         1.155749        -1.973982
 H         1.694095        -0.406170        -2.361985
 H         2.424054        -1.733501        -1.480902
