19
Iteration:  1222
 C         0.018275        -0.622330         0.243036
 C         1.434181        -0.127704         0.014553
 C         2.681690        -0.392044         1.016277
 C         3.108839         0.791333         0.185818
 C         4.597530         1.282039         0.171535
 O         4.768641         0.105246        -0.730665
 C         3.340048         0.339607        -1.227500
 C         2.090134        -0.620822        -1.337404
 O         1.757801         1.405911         0.120470
 H        -0.208450        -0.472667         1.268104
 H        -0.739071        -0.085725        -0.312223
 H        -0.155118        -1.764389         0.011619
 H         2.524262        -0.115107         2.086134
 H         3.141187        -1.433127         0.846894
 H         4.670078         2.224050        -0.275905
 H         5.299230         1.067252         1.059750
 H         3.430452         1.047280        -1.989620
 H         1.485333        -0.251529        -2.223471
 H         2.209193        -1.709303        -1.327762
