19
Iteration:   922charge 0 multiplicity 1
 C         0.072085        -0.580866         0.352302
 C         1.445458        -0.176217        -0.011915
 C         2.519682        -0.395608         1.074745
 C         3.120397         0.735702         0.238846
 C         4.572513         1.204054         0.251786
 O         4.817625         0.197089        -0.881349
 C         3.354485         0.339339        -1.160373
 C         2.160975        -0.599121        -1.362893
 O         1.745826         1.371433        -0.013528
 H        -0.204402        -0.337504         1.412650
 H        -0.756553        -0.173808        -0.230456
 H         0.072073        -1.573367         0.114154
 H         2.273996        -0.182742         2.108514
 H         3.039975        -1.339015         0.881551
 H         4.707082         2.213996        -0.273288
 H         5.155627         1.094340         1.150566
 H         3.333925         1.225222        -1.760318
 H         1.542554        -0.182704        -2.107551
 H         2.204464        -1.684997        -1.401121
