19
Iteration:  4299charge 0 multiplicity 1
 C        -0.063132        -0.505960         0.288061
 C         1.426291        -0.109044         0.073765
 C         2.505740        -0.410922         1.014469
 C         3.122247         0.780711         0.178087
 C         4.594726         1.267352         0.183691
 O         4.852336         0.194674        -0.875611
 C         3.412376         0.334668        -1.201461
 C         2.191533        -0.782963        -1.318963
 O         1.787351         1.401483         0.085319
 H        -0.439555        -0.238339         1.328122
 H        -0.727105        -0.311443        -0.548463
 H        -0.044358        -1.574400         0.477146
 H         2.348109         0.074594         1.984987
 H         2.832195        -1.439879         1.107996
 H         4.685210         2.300920        -0.169419
 H         5.110852         0.959552         1.115590
 H         3.233535         0.959481        -2.074456
 H         1.509049        -0.850406        -2.125519
 H         2.315769        -1.814103        -0.897031
