19
Iteration:  1761
 C         0.020670        -0.569075         0.336569
 C         1.496386        -0.166747        -0.033377
 C         2.622583        -0.360336         0.984271
 C         3.140116         0.783806         0.162549
 C         4.586730         1.207746         0.253803
 O         4.767464         0.121392        -0.771715
 C         3.318058         0.359164        -1.236029
 C         2.126227        -0.590454        -1.325591
 O         1.706980         1.335546         0.053411
 H        -0.108919        -0.446311         1.398066
 H        -0.661291         0.172905        -0.257812
 H        -0.172454        -1.591579         0.021373
 H         2.422750         0.100060         1.943766
 H         3.221824        -1.271793         1.013797
 H         4.754031         2.161118        -0.188653
 H         5.198545         0.964158         1.198907
 H         3.432419         1.145475        -1.905459
 H         1.543949        -0.407192        -2.147972
 H         2.374085        -1.626601        -1.120638
