19
Iteration:   200
 C         0.082402        -0.604470         0.326016
 C         1.452334        -0.127600         0.025435
 C         2.527909        -0.306812         1.014951
 C         3.105649         0.823724         0.202738
 C         4.666576         1.121268         0.226701
 O         4.740189         0.216647        -0.894268
 C         3.330764         0.321762        -1.156006
 C         2.139420        -0.661463        -1.342603
 O         1.743530         1.342494         0.080725
 H        -0.109506        -0.608867         1.297605
 H        -0.688203         0.043324        -0.249512
 H         0.063811        -1.625928        -0.093899
 H         2.265148         0.088320         1.979974
 H         3.160350        -1.156037         1.124544
 H         4.899701         2.186329        -0.152685
 H         5.238901         0.913993         1.077657
 H         3.209744         1.083009        -1.813222
 H         1.605390        -0.412210        -2.302197
 H         2.280478        -1.769829        -1.248561
