19
Iteration:  2399charge 0 multiplicity 1
 C         0.001165        -0.425705         0.256589
 C         1.453107        -0.277687         0.002177
 C         2.596202        -0.387613         1.055644
 C         3.113813         0.805807         0.172564
 C         4.595692         1.230799         0.185063
 O         4.783808         0.170353        -0.884894
 C         3.331790         0.365666        -1.204698
 C         2.143480        -0.650621        -1.249974
 O         1.750665         1.273104         0.118288
 H        -0.113950        -0.020573         1.208103
 H        -0.501661         0.092183        -0.468028
 H        -0.173672        -1.511076         0.405514
 H         2.193042         0.035207         1.972890
 H         3.102762        -1.309109         1.227939
 H         4.921530         2.136804        -0.263188
 H         5.129482         1.069549         1.195779
 H         3.205870         1.080553        -1.989542
 H         1.653809        -0.458345        -2.239535
 H         2.534804        -1.659734        -1.223575
