19
Iteration:   732charge 0 multiplicity 1
 C         0.017902        -0.730602         0.309215
 C         1.444908        -0.168575         0.069971
 C         2.545625        -0.350623         1.042703
 C         3.118917         0.838612         0.164317
 C         4.601537         1.265738         0.192635
 O         4.755114         0.057277        -0.836641
 C         3.374683         0.307485        -1.224511
 C         2.140229        -0.542648        -1.374822
 O         1.811103         1.463222         0.163927
 H        -0.422689        -0.667766         1.242212
 H        -0.703297        -0.239800        -0.421938
 H         0.040579        -1.852898        -0.082752
 H         2.312673         0.034693         2.050092
 H         3.130935        -1.258033         1.098393
 H         4.775268         2.158956        -0.476333
 H         5.117392         1.308198         1.142473
 H         3.432756         1.127993        -2.084705
 H         1.367193        -0.247243        -2.141809
 H         2.295416        -1.639911        -1.538524
