19
Iteration:   683charge 0 multiplicity 1
 C         0.004563        -0.585572         0.396209
 C         1.462492        -0.232191         0.034686
 C         2.679621        -0.363337         0.918431
 C         3.081263         0.874798         0.165973
 C         4.613774         1.154799         0.244915
 O         4.742319         0.102627        -0.864385
 C         3.331335         0.428717        -1.186475
 C         2.215973        -0.573615        -1.327998
 O         1.676033         1.339752         0.051165
 H        -0.275487         0.056628         1.402973
 H        -0.637656        -0.106496        -0.337543
 H        -0.324866        -1.615784         0.477431
 H         2.521357        -0.118233         1.972626
 H         3.188166        -1.354908         0.837719
 H         4.908508         2.228949         0.131595
 H         5.031473         0.640757         1.225247
 H         3.258739         1.300162        -1.879237
 H         1.694498        -0.485229        -2.263737
 H         2.598128        -1.585081        -1.338932
