19
Iteration:  3316charge 0 multiplicity 1
 C         0.032536        -0.571860         0.344622
 C         1.480231        -0.130738        -0.083582
 C         2.576648        -0.334540         0.952205
 C         3.112169         0.849969         0.219652
 C         4.553315         1.213984         0.146872
 O         4.860605         0.021618        -0.749216
 C         3.303837         0.294653        -1.179877
 C         2.158397        -0.610042        -1.267575
 O         1.684294         1.416391         0.052509
 H        -0.142382        -0.327139         1.398618
 H        -0.726982        -0.048473        -0.196261
 H        -0.079422        -1.616041         0.182537
 H         2.473597        -0.070215         2.004447
 H         3.141614        -1.161623         1.043201
 H         4.654138         2.164672        -0.490950
 H         5.223935         1.167380         1.059338
 H         3.332781         1.154030        -1.941500
 H         1.713555        -0.605528        -2.221571
 H         2.411573        -1.720238        -1.107595
