19
Iteration:  1281
 C         0.020480        -0.572455         0.319650
 C         1.429198        -0.124458        -0.028382
 C         2.582236        -0.361486         0.981928
 C         3.100531         0.825111         0.211289
 C         4.609994         1.231598         0.209551
 O         4.781711         0.181202        -0.882201
 C         3.347314         0.299375        -1.145990
 C         2.156839        -0.642376        -1.306464
 O         1.768444         1.317011         0.096628
 H        -0.268731        -0.185941         1.378231
 H        -0.694082        -0.251406        -0.465674
 H         0.094277        -1.585081         0.375641
 H         2.236800        -0.205994         2.019596
 H         3.027973        -1.338410         0.890190
 H         4.903891         2.352911         0.114063
 H         5.081062         0.818187         1.144559
 H         3.283189         1.085861        -1.908655
 H         1.589333        -0.287720        -2.192311
 H         2.314209        -1.752513        -1.516779
