19
Iteration:  3005charge 0 multiplicity 1
 C         0.042404        -0.496133         0.240068
 C         1.455158        -0.105229         0.069310
 C         2.705224        -0.328412         0.962222
 C         3.085410         0.865294         0.161475
 C         4.591350         1.213565         0.220299
 O         4.716335         0.134585        -0.720170
 C         3.312963         0.320817        -1.211938
 C         2.107297        -0.762803        -1.333877
 O         1.752439         1.318201         0.074103
 H        -0.192492        -0.443397         1.324638
 H        -0.660554         0.195580        -0.269146
 H        -0.029423        -1.592401         0.123300
 H         2.311173         0.014746         1.920662
 H         3.248853        -1.255532         0.893090
 H         5.138841         2.169281        -0.255166
 H         5.146786         0.958385         1.093879
 H         3.250776         1.097591        -2.094563
 H         1.388549        -0.651875        -2.254749
 H         2.623090        -1.738537        -1.260489
