19
Iteration:  3848
 C         0.034849        -0.553515         0.383827
 C         1.470022        -0.184038         0.006388
 C         2.657830        -0.307830         1.044679
 C         3.067629         0.842264         0.078849
 C         4.635029         1.185258         0.236779
 O         4.723773         0.099253        -0.723151
 C         3.329680         0.359990        -1.299273
 C         2.204082        -0.592670        -1.348624
 O         1.694790         1.279360         0.023900
 H        -0.299322        -0.252403         1.399729
 H        -0.618025         0.053964        -0.176285
 H        -0.087425        -1.617454         0.194228
 H         2.349925         0.254379         2.043153
 H         3.287966        -1.177018         1.165298
 H         5.113589         2.150751        -0.022436
 H         5.059301         0.882286         1.110428
 H         3.176939         1.187056        -2.052475
 H         1.568013        -0.340868        -2.191578
 H         2.288219        -1.714228        -1.345596
