19
Iteration:  1065
 C         0.084874        -0.497400         0.280488
 C         1.493907        -0.262606        -0.053543
 C         2.688848        -0.338123         0.886638
 C         3.046130         0.953198         0.176878
 C         4.593549         1.147435         0.241033
 O         4.791294         0.122925        -0.772415
 C         3.354631         0.374314        -1.202510
 C         2.155362        -0.688329        -1.352703
 O         1.622002         1.335111         0.190365
 H         0.049167        -0.338252         1.367029
 H        -0.802965         0.083554        -0.187538
 H        -0.176336        -1.555502         0.095165
 H         2.345635        -0.044243         1.899944
 H         3.287108        -1.236305         0.824015
 H         4.877827         2.234470         0.062905
 H         4.999867         0.924244         1.253371
 H         3.307844         0.973425        -2.109809
 H         1.484314        -0.401359        -2.102036
 H         2.333685        -1.747763        -1.333429
