19
Iteration:  1165
 C         0.047075        -0.450175         0.273707
 C         1.450879        -0.212140         0.003190
 C         2.643416        -0.374871         1.014809
 C         3.050943         0.854883         0.233470
 C         4.602365         1.151024         0.229957
 O         4.764893         0.198152        -0.912778
 C         3.316754         0.420268        -1.139346
 C         2.223282        -0.702631        -1.356143
 O         1.697889         1.264896         0.131938
 H        -0.373073         0.120303         1.050635
 H        -0.500830        -0.140380        -0.688721
 H        -0.364426        -1.520732         0.468087
 H         2.330853        -0.059309         2.042736
 H         3.234339        -1.316222         1.083468
 H         4.963624         2.121129        -0.034034
 H         5.169615         0.789051         1.094409
 H         3.157652         1.194540        -1.917891
 H         1.717094        -0.633886        -2.308250
 H         2.569904        -1.716402        -1.241938
