19
Iteration:  3336
 C         0.031830        -0.576888         0.392191
 C         1.399491        -0.104000         0.025696
 C         2.539745        -0.320970         1.050303
 C         3.086148         0.829978         0.165144
 C         4.602465         1.276881         0.187348
 O         4.794451         0.110815        -0.767889
 C         3.405153         0.255290        -1.183878
 C         2.127555        -0.658047        -1.392791
 O         1.793051         1.351808        -0.009788
 H        -0.227782        -0.500662         1.405625
 H        -0.656943         0.021261        -0.136394
 H         0.082713        -1.624795         0.109311
 H         2.316943         0.035974         2.089514
 H         2.898968        -1.343555         1.118037
 H         4.804844         2.369508        -0.103070
 H         5.189983         0.955829         1.009047
 H         3.422013         0.894582        -2.100878
 H         1.621201        -0.337282        -2.271434
 H         2.169069        -1.815329        -1.435204
