19
Iteration:   188charge 0 multiplicity 1
 C         0.075006        -0.559220         0.298423
 C         1.456443        -0.166265         0.009171
 C         2.593896        -0.326555         1.006674
 C         3.052827         0.954292         0.196946
 C         4.716993         1.121988         0.176480
 O         4.772955         0.144100        -0.870748
 C         3.352923         0.361889        -1.226559
 C         2.198710        -0.681111        -1.300739
 O         1.586974         1.353871         0.185617
 H        -0.275203        -0.465854         1.250027
 H        -0.614525         0.021853        -0.409495
 H        -0.054590        -1.635704         0.000062
 H         2.268766        -0.170826         2.027702
 H         3.149436        -1.213902         0.852725
 H         5.237065         2.095822        -0.165143
 H         5.148562         0.738541         1.030882
 H         3.311594         1.006153        -2.009782
 H         1.543914        -0.594704        -2.183808
 H         2.486744        -1.719977        -1.181248
