19
Iteration:  4195charge 0 multiplicity 1
 C         0.003438        -0.664208         0.431132
 C         1.411369        -0.130706        -0.053643
 C         2.553231        -0.312895         1.027380
 C         3.066622         0.792592         0.107871
 C         4.574550         1.178221         0.208546
 O         4.806500         0.157695        -0.784404
 C         3.424240         0.316033        -1.203322
 C         2.099304        -0.612755        -1.278872
 O         1.825516         1.405354         0.007516
 H        -0.325853        -0.409115         1.445859
 H        -0.773307        -0.269181        -0.266910
 H         0.088502        -1.707899         0.040672
 H         2.221309         0.167587         2.017974
 H         2.998679        -1.295005         1.103365
 H         4.809098         2.150000        -0.161590
 H         5.173725         1.039826         1.108129
 H         3.329273         1.040762        -2.060905
 H         1.525244        -0.425841        -2.207501
 H         2.578337        -1.609558        -1.288416
