19
Iteration:  3959charge 0 multiplicity 1
 C        -0.009130        -0.466500         0.302441
 C         1.426994        -0.171630        -0.017317
 C         2.676898        -0.414578         1.014691
 C         3.122866         0.840184         0.196541
 C         4.595431         1.131137         0.253430
 O         4.851405         0.218926        -0.871340
 C         3.270792         0.377678        -1.247143
 C         2.181905        -0.725903        -1.185821
 O         1.636158         1.325217         0.032204
 H        -0.364123         0.115811         1.100225
 H        -0.698819        -0.160761        -0.507676
 H        -0.182225        -1.554788         0.306796
 H         2.873914         0.094798         1.985749
 H         3.197953        -1.408923         0.795035
 H         4.843901         2.181928         0.013722
 H         5.017978         0.880272         1.189043
 H         3.402374         1.157400        -2.055612
 H         1.512951        -0.812193        -2.128233
 H         2.729211        -1.560793        -0.906526
