19
Iteration:  4432
 C         0.027542        -0.437206         0.349495
 C         1.435928        -0.212883         0.055655
 C         2.643797        -0.332636         1.027342
 C         3.020618         0.863500         0.125845
 C         4.566853         1.126404         0.226760
 O         4.784404         0.126433        -0.843247
 C         3.385545         0.391980        -1.213965
 C         2.244264        -0.720545        -1.367618
 O         1.674271         1.326775         0.071214
 H        -0.345950         0.261568         1.189191
 H        -0.611953        -0.305936        -0.547342
 H        -0.225986        -1.460701         0.670855
 H         2.264478        -0.045575         2.061388
 H         3.241492        -1.230486         1.204014
 H         5.012705         2.033204        -0.146936
 H         5.101503         0.978712         1.252914
 H         3.316917         1.124216        -2.017644
 H         1.713873        -0.478620        -2.235722
 H         2.623988        -1.789821        -1.353163
