19
Iteration:  2653charge 0 multiplicity 1
 C         0.049645        -0.589236         0.290259
 C         1.405100        -0.122852        -0.013122
 C         2.496874        -0.379674         1.013803
 C         3.163761         0.802198         0.213446
 C         4.645020         1.276171         0.137217
 O         4.803013         0.100315        -0.760608
 C         3.402033         0.334242        -1.194338
 C         2.109096        -0.647419        -1.324548
 O         1.738946         1.358367         0.106005
 H        -0.121957        -0.427598         1.397281
 H        -0.767150        -0.034923        -0.307287
 H        -0.363090        -1.658761         0.159155
 H         2.245864         0.101895         2.012294
 H         3.188843        -1.257828         1.107683
 H         4.768191         2.175413        -0.533853
 H         5.436321         1.267258         0.856238
 H         3.197195         0.908786        -2.064751
 H         1.496593        -0.220475        -2.154898
 H         2.320040        -1.792300        -1.295514
