19
Iteration:  2789charge 0 multiplicity 1
 C        -0.002217        -0.480714         0.243743
 C         1.495575        -0.208197         0.130373
 C         2.648126        -0.295376         1.083257
 C         3.107214         0.878715         0.156004
 C         4.562816         1.240896         0.123364
 O         4.768694         0.075242        -0.749500
 C         3.337843         0.300262        -1.257456
 C         2.198442        -0.637106        -1.361806
 O         1.664415         1.277828         0.125619
 H        -0.304896        -0.208042         1.272213
 H        -0.431984         0.064007        -0.572123
 H        -0.044753        -1.532554        -0.079458
 H         2.441375         0.168169         2.041321
 H         3.160350        -1.358425         1.058643
 H         4.957650         2.073502        -0.445759
 H         5.179841         1.063533         1.048365
 H         3.451604         1.065748        -2.006873
 H         1.402670        -0.418293        -2.105377
 H         2.407981        -1.669868        -1.459873
