19
Iteration:  4637charge 0 multiplicity 1
 C        -0.024902        -0.518881         0.196127
 C         1.452433        -0.166736         0.075258
 C         2.681999        -0.371307         1.036337
 C         3.139369         0.856111         0.127544
 C         4.596694         1.222893         0.154491
 O         4.766376         0.109350        -0.779351
 C         3.319686         0.301413        -1.236697
 C         2.121312        -0.735477        -1.295530
 O         1.718940         1.413435         0.188189
 H        -0.465002         0.222662         0.921635
 H        -0.473189        -0.366204        -0.762184
 H        -0.030544        -1.508594         0.479903
 H         2.413295         0.042374         2.086550
 H         3.328806        -1.245785         0.999993
 H         4.891069         2.318684        -0.150710
 H         5.156854         0.898013         1.032619
 H         3.350505         1.094798        -1.994362
 H         1.515454        -0.549358        -2.166861
 H         2.433251        -1.844884        -1.500513
