19
Iteration:  4267charge 0 multiplicity 1
 C        -0.012622        -0.494256         0.198424
 C         1.484640        -0.231205         0.070325
 C         2.649947        -0.348735         1.051153
 C         3.129743         0.834977         0.256414
 C         4.567810         1.267990         0.087598
 O         4.796381         0.127527        -0.821897
 C         3.369519         0.313530        -1.122784
 C         2.096887        -0.711677        -1.349530
 O         1.717570         1.351318         0.106790
 H        -0.387950         0.209225         0.993225
 H        -0.575346        -0.368155        -0.701449
 H        -0.094017        -1.509851         0.504263
 H         2.369333         0.013701         2.053759
 H         3.195154        -1.295369         1.113501
 H         4.783489         2.271207        -0.324492
 H         5.218713         1.178678         1.029826
 H         3.372258         1.033252        -1.918312
 H         1.594864        -0.433104        -2.243618
 H         2.197423        -1.848097        -1.190782
