19
Iteration:  2021
 C         0.024091        -0.425773         0.290682
 C         1.540721        -0.161081         0.024442
 C         2.635336        -0.432079         0.970343
 C         3.071741         0.886434         0.160475
 C         4.551465         1.159239         0.272439
 O         4.740058         0.184306        -0.882200
 C         3.359501         0.329101        -1.245081
 C         2.212427        -0.697543        -1.298606
 O         1.707652         1.315008         0.166385
 H        -0.503423         0.149138         0.956801
 H        -0.679262        -0.314365        -0.614690
 H        -0.297181        -1.438311         0.648445
 H         2.333300        -0.163545         1.988322
 H         3.170072        -1.325518         0.969222
 H         4.827775         2.202859        -0.064001
 H         5.094164         0.839057         1.128221
 H         3.306775         1.041085        -2.153160
 H         1.640952        -0.622824        -2.266995
 H         2.529081        -1.770793        -1.063541
