19
Iteration:  4800charge 0 multiplicity 1
 C         0.003318        -0.462235         0.346828
 C         1.442059        -0.272667         0.023375
 C         2.598848        -0.373308         1.021879
 C         3.084722         0.853595         0.125706
 C         4.645602         1.100154         0.280196
 O         4.838976         0.244527        -0.863527
 C         3.361880         0.325819        -1.231838
 C         2.177018        -0.706902        -1.325126
 O         1.691782         1.410381         0.089951
 H        -0.777622         0.130848         0.988029
 H        -0.582671        -0.528597        -0.589125
 H        -0.114489        -1.478738         0.695048
 H         2.338037         0.056770         2.043027
 H         3.172511        -1.265116         0.922944
 H         4.971419         2.094739        -0.026046
 H         5.026368         0.766824         1.175675
 H         3.216901         1.010650        -2.042936
 H         1.608037        -0.491894        -2.206022
 H         2.220678        -1.858657        -1.305464
