19
Iteration:  2281charge 0 multiplicity 1
 C         0.005838        -0.600024         0.344501
 C         1.394989        -0.115311        -0.010618
 C         2.526521        -0.324034         1.011824
 C         3.139102         0.795851         0.151721
 C         4.600848         1.245776         0.198536
 O         4.904246         0.120472        -0.801103
 C         3.355180         0.244990        -1.212893
 C         2.072753        -0.640336        -1.391500
 O         1.802696         1.387299         0.129649
 H        -0.111559        -0.577543         1.363146
 H        -0.802883         0.002372        -0.037963
 H        -0.204001        -1.731482         0.197661
 H         2.220639         0.012668         2.044142
 H         3.018893        -1.363725         1.053284
 H         4.714744         2.196925        -0.321856
 H         5.096879         1.330915         1.193945
 H         3.300615         1.030489        -2.087779
 H         1.643494        -0.180130        -2.211952
 H         2.005999        -1.645595        -1.377683
