19
Iteration:  4269
 C        -0.015198        -0.501910         0.193100
 C         1.492298        -0.196730         0.053428
 C         2.642391        -0.346295         1.032948
 C         3.111925         0.822194         0.251934
 C         4.575709         1.255828         0.080594
 O         4.811883         0.141289        -0.819891
 C         3.361769         0.297633        -1.110765
 C         2.116112        -0.707329        -1.347599
 O         1.719349         1.346659         0.114737
 H        -0.339263         0.150640         1.014940
 H        -0.575989        -0.367479        -0.691235
 H        -0.129226        -1.495150         0.562029
 H         2.360307         0.013229         2.081644
 H         3.201219        -1.270763         1.113073
 H         4.743753         2.271326        -0.320022
 H         5.236986         1.172380         1.044598
 H         3.275153         0.999280        -1.897816
 H         1.511780        -0.444082        -2.191498
 H         2.125819        -1.836228        -1.105460
