19
Iteration:  1136charge 0 multiplicity 1
 C        -0.040815        -0.510909         0.180294
 C         1.425518        -0.124681         0.043323
 C         2.661335        -0.411229         1.025532
 C         3.107607         0.823985         0.191921
 C         4.590346         1.189448         0.211111
 O         4.770121         0.207577        -0.861150
 C         3.298138         0.373775        -1.208969
 C         2.211284        -0.696477        -1.314027
 O         1.745321         1.299095         0.208368
 H        -0.591123         0.035458         1.020704
 H        -0.604810        -0.373584        -0.688324
 H        -0.042504        -1.567633         0.385898
 H         2.490072        -0.034665         2.049698
 H         3.249542        -1.374224         0.948365
 H         4.920479         2.188610        -0.159921
 H         5.298830         0.984225         1.160148
 H         3.185927         1.019651        -2.068456
 H         1.652828        -0.432730        -2.298679
 H         2.478396        -1.793700        -1.279054
