19
Iteration:  4692
 C        -0.012954        -0.535162         0.346014
 C         1.446030        -0.156728         0.007859
 C         2.558736        -0.344121         0.944382
 C         3.086197         0.874200         0.134213
 C         4.584526         1.169674         0.198312
 O         4.817688         0.136120        -0.824803
 C         3.401205         0.290828        -1.178245
 C         2.171079        -0.681154        -1.333415
 O         1.737646         1.381772         0.108619
 H        -0.032659        -0.533457         1.474737
 H        -0.756233         0.134323        -0.099400
 H        -0.221275        -1.510695         0.007077
 H         2.034194         0.014465         1.934944
 H         3.019931        -1.313080         1.237924
 H         4.808821         2.289814        -0.201498
 H         5.289975         1.011700         1.051354
 H         3.322896         1.147056        -1.864841
 H         1.670151        -0.650010        -2.303506
 H         2.490202        -1.802500        -1.040096
