19
Iteration:  2817
 C         0.007072        -0.469674         0.320155
 C         1.450257        -0.222811        -0.026683
 C         2.691355        -0.316175         0.973314
 C         3.136805         0.903091         0.249417
 C         4.585847         1.256069         0.165119
 O         4.727293         0.074575        -0.761363
 C         3.320925         0.289522        -1.148540
 C         2.213013        -0.696885        -1.360756
 O         1.657722         1.322970         0.060643
 H        -0.096109        -0.342549         1.444459
 H        -0.557218         0.165475        -0.420257
 H        -0.282216        -1.508433         0.126179
 H         2.348811         0.034291         1.983812
 H         3.147428        -1.242004         0.906688
 H         4.934094         2.164650        -0.404113
 H         5.296454         1.094358         0.956939
 H         3.403108         1.102579        -1.948436
 H         1.594461        -0.500801        -2.241231
 H         2.509549        -1.766316        -1.083250
