19
Iteration:  3821
 C         0.037077        -0.584639         0.385784
 C         1.396995        -0.131947        -0.089855
 C         2.570537        -0.331926         0.952343
 C         3.094714         0.847437         0.202028
 C         4.641458         1.209262         0.204961
 O         4.880316         0.099933        -0.815834
 C         3.312728         0.289750        -1.133885
 C         2.165584        -0.675035        -1.300040
 O         1.687394         1.396047         0.041771
 H        -0.133008        -0.192484         1.378305
 H        -0.921585        -0.125082        -0.046886
 H         0.136960        -1.672829         0.188198
 H         2.179334        -0.054318         1.850336
 H         3.145489        -1.287700         0.769842
 H         4.710278         2.229476        -0.235026
 H         5.473191         1.174949         1.084470
 H         3.048081         1.125191        -1.754101
 H         1.621527        -0.359230        -2.244225
 H         2.356688        -1.766476        -1.093497
