19
Iteration:  1510charge 0 multiplicity 1
 C         0.013950        -0.537908         0.222407
 C         1.460835        -0.196554         0.005326
 C         2.513381        -0.455802         1.057971
 C         3.171274         0.815612         0.217029
 C         4.624229         1.262805         0.183310
 O         4.794590         0.234454        -0.917676
 C         3.296633         0.310015        -1.124546
 C         2.135891        -0.624457        -1.293344
 O         1.808211         1.328388         0.117401
 H        -0.437772         0.037331         1.016833
 H        -0.672542        -0.379155        -0.577051
 H        -0.111501        -1.501332         0.461505
 H         2.200127        -0.176346         2.098473
 H         2.970172        -1.471534         1.154401
 H         4.879931         2.212785        -0.225972
 H         5.260049         0.814450         1.084096
 H         3.001650         1.128856        -1.717779
 H         1.748485        -0.336301        -2.244062
 H         2.255886        -1.732416        -1.294846
