19
Iteration:  3413charge 0 multiplicity 1
 C        -0.028795        -0.522569         0.216398
 C         1.436202        -0.165728         0.052353
 C         2.543941        -0.356298         1.071864
 C         3.084027         0.801348         0.202274
 C         4.589012         1.196942         0.106628
 O         4.860207         0.159429        -0.879311
 C         3.398426         0.237739        -1.177365
 C         2.211687        -0.622698        -1.295395
 O         1.728240         1.390043         0.171565
 H        -0.375546         0.093678         1.058258
 H        -0.547205        -0.396774        -0.724854
 H        -0.156560        -1.586025         0.460720
 H         2.109369         0.033304         2.078456
 H         3.058625        -1.289286         1.283080
 H         4.626827         2.070212        -0.565418
 H         5.093669         1.253533         1.022404
 H         3.303796         1.021354        -1.975042
 H         1.572256        -0.595590        -2.187342
 H         2.418967        -1.736563        -1.074330
