19
Iteration:  1034charge 0 multiplicity 1
 C        -0.080276        -0.558089         0.322512
 C         1.449443        -0.139979         0.040996
 C         2.700179        -0.377494         0.969027
 C         3.137545         0.809730         0.181272
 C         4.566221         1.204832         0.295218
 O         4.798091         0.122991        -0.843941
 C         3.321629         0.409241        -1.224833
 C         2.223422        -0.617790        -1.394025
 O         1.710101         1.323618         0.082714
 H        -0.265354        -0.383430         1.279851
 H        -0.899831        -0.108403        -0.254069
 H        -0.012520        -1.656351         0.221929
 H         2.484689         0.003355         2.029605
 H         3.179232        -1.390573         0.953708
 H         4.658820         2.256647         0.005691
 H         5.009023         0.844218         1.349232
 H         3.226852         1.114766        -1.978692
 H         1.510919        -0.414736        -2.219005
 H         2.489332        -1.691865        -1.323176
