19
Iteration:  1154
 C        -0.036566        -0.484706         0.236613
 C         1.509538        -0.290037         0.081966
 C         2.619410        -0.437023         0.992579
 C         3.128372         0.845737         0.199464
 C         4.555570         1.170602         0.243518
 O         4.757493         0.173279        -0.885424
 C         3.345313         0.450561        -1.278814
 C         2.195428        -0.617033        -1.245428
 O         1.698252         1.319802         0.115525
 H        -0.254110         0.236733         0.918437
 H        -0.420062        -0.117430        -0.771319
 H        -0.323881        -1.595307         0.450675
 H         2.472009        -0.082826         2.044283
 H         3.159811        -1.402284         0.871494
 H         4.861623         2.157478        -0.009808
 H         5.179811         0.741382         1.060049
 H         3.227021         1.383923        -1.820246
 H         1.579946        -0.896888        -2.072912
 H         2.744584        -1.488393        -0.941348
