19
Iteration:  3257charge 0 multiplicity 1
 C         0.027707        -0.481517         0.257431
 C         1.434143        -0.147463        -0.008463
 C         2.586549        -0.365975         1.073165
 C         3.126831         0.819349         0.228056
 C         4.625755         1.246023         0.180644
 O         4.830318         0.159669        -0.826089
 C         3.321004         0.291037        -1.181684
 C         2.095576        -0.719395        -1.277347
 O         1.757326         1.341299         0.066490
 H        -0.470554         0.094185         1.029437
 H        -0.436724        -0.433960        -0.777428
 H        -0.043105        -1.592031         0.412249
 H         2.382046         0.006052         2.080847
 H         3.095526        -1.397191         0.922360
 H         4.859170         2.262529        -0.373717
 H         5.284088         1.111402         1.020614
 H         3.056736         1.085712        -1.951064
 H         1.374326        -0.555095        -2.154228
 H         2.217217        -1.817577        -1.142614
