19
Iteration:  2374
 C        -0.064689        -0.490554         0.319069
 C         1.388086        -0.112991         0.090396
 C         2.567939        -0.363822         1.018060
 C         3.145393         0.760292         0.271635
 C         4.652718         1.149643         0.191025
 O         4.851231         0.259811        -0.932209
 C         3.358029         0.261074        -1.092752
 C         2.157146        -0.693241        -1.376211
 O         1.715724         1.327359         0.037347
 H        -0.571489        -0.018243         1.319106
 H        -0.433212        -0.300221        -0.755223
 H         0.177646        -1.533928         0.591333
 H         2.296306        -0.048454         2.018779
 H         3.030085        -1.339802         1.028060
 H         4.705091         2.153388        -0.291824
 H         5.457547         1.078853         0.950894
 H         3.091977         1.068360        -1.745654
 H         1.786618        -0.238210        -2.357321
 H         2.260790        -1.857177        -1.325109
