19
Iteration:  4379charge 0 multiplicity 1
 C         0.079369        -0.631028         0.252308
 C         1.404677        -0.122699         0.005704
 C         2.565980        -0.287680         1.019666
 C         3.172582         0.796345         0.125793
 C         4.537010         1.309093         0.137629
 O         4.786484         0.024884        -0.738669
 C         3.365456         0.236839        -1.211493
 C         2.125112        -0.610044        -1.305089
 O         1.774352         1.435996         0.171095
 H        -0.348622        -0.302422         1.175678
 H        -0.759426        -0.253712        -0.317456
 H         0.035780        -1.718159         0.126826
 H         2.267896        -0.047756         2.097209
 H         3.130844        -1.223069         0.808290
 H         4.812916         2.204578        -0.531355
 H         5.009272         1.432345         1.214129
 H         3.403788         0.854188        -2.102392
 H         1.595848        -0.391897        -2.268560
 H         2.207246        -1.734844        -1.237338
