19
Iteration:  1344charge 0 multiplicity 1
 C         0.054851        -0.440229         0.195696
 C         1.488584        -0.259403         0.031701
 C         2.689885        -0.376957         0.988386
 C         3.125433         0.853647         0.279560
 C         4.603369         1.213875         0.164494
 O         4.762860         0.149492        -0.860005
 C         3.294766         0.360455        -1.180284
 C         2.147323        -0.707118        -1.296726
 O         1.631190         1.319732         0.178810
 H        -0.475354         0.279031         0.911677
 H        -0.319290        -0.110602        -0.733006
 H        -0.353941        -1.500535         0.266217
 H         2.435532        -0.190179         2.079091
 H         3.474324        -1.219285         0.903726
 H         4.650756         2.201182        -0.133675
 H         5.360361         0.880382         1.006470
 H         3.241135         1.103976        -1.912676
 H         1.562152        -0.474857        -2.221781
 H         2.591955        -1.727527        -1.283888
