19
Iteration:   498
 C         0.016212        -0.596722         0.231938
 C         1.418108        -0.177065         0.086458
 C         2.622487        -0.497485         0.906707
 C         3.102795         0.822177         0.203743
 C         4.610455         1.298324         0.102147
 O         4.801924         0.111988        -0.782496
 C         3.322204         0.337666        -1.168450
 C         2.123334        -0.538303        -1.308837
 O         1.742822         1.369851         0.199343
 H        -0.434784         0.088398         1.116114
 H        -0.535440        -0.361195        -0.657626
 H         0.008737        -1.647934         0.436510
 H         2.635618        -0.246475         1.981338
 H         3.067635        -1.485519         0.741439
 H         4.771768         2.217115        -0.409460
 H         5.314663         1.148048         1.033467
 H         3.379071         1.299839        -1.816717
 H         1.472405        -0.377807        -2.183645
 H         2.343465        -1.644622        -1.376916
