19
Iteration:  4208charge 0 multiplicity 1
 C         0.046709        -0.651977         0.329046
 C         1.383620        -0.123151         0.036142
 C         2.529402        -0.334457         0.937186
 C         3.149175         0.902349         0.187903
 C         4.626656         1.222272         0.211076
 O         4.817682         0.132498        -0.786155
 C         3.354460         0.279646        -1.200918
 C         2.143090        -0.713633        -1.305451
 O         1.745108         1.455998         0.028514
 H        -0.056097        -0.457251         1.408013
 H        -0.862696        -0.217764        -0.216006
 H        -0.008909        -1.795799         0.463711
 H         2.384704        -0.044494         1.982037
 H         2.971886        -1.345919         0.890200
 H         4.938320         2.196988        -0.204726
 H         5.029438         0.921789         1.120140
 H         3.422525         1.092721        -2.021651
 H         1.626112        -0.480162        -2.340166
 H         2.082705        -1.768436        -1.130791
