19
Iteration:  1614charge 0 multiplicity 1
 C        -0.053785        -0.620532         0.291283
 C         1.424450        -0.212193        -0.004413
 C         2.623220        -0.383664         0.926446
 C         3.154921         0.866599         0.194998
 C         4.651123         1.218768         0.175684
 O         4.779395         0.135318        -0.735376
 C         3.327432         0.298609        -1.204704
 C         2.132064        -0.620645        -1.346451
 O         1.734762         1.426424         0.160451
 H        -0.317912        -0.340373         1.371567
 H        -0.651382        -0.077614        -0.434489
 H        -0.186693        -1.794931         0.176860
 H         2.514329        -0.037350         1.957791
 H         3.149990        -1.327360         0.860165
 H         4.995320         2.246900        -0.294991
 H         5.289893         1.094462         1.027802
 H         3.466271         1.098129        -2.016389
 H         1.450033        -0.207722        -2.235378
 H         2.276569        -1.721349        -1.430415
