19
Iteration:  4710
 C        -0.029458        -0.529047         0.280321
 C         1.433367        -0.168896         0.041378
 C         2.672941        -0.317427         1.032987
 C         3.102251         0.834193         0.144105
 C         4.579121         1.233800         0.266086
 O         4.752287         0.094753        -0.799264
 C         3.316242         0.309389        -1.294934
 C         2.212499        -0.655207        -1.276947
 O         1.746764         1.353299         0.074186
 H        -0.172303        -0.459148         1.421146
 H        -0.553899         0.298541        -0.181199
 H        -0.190258        -1.519765        -0.212932
 H         2.655520        -0.150540         2.142238
 H         3.148468        -1.199530         0.661627
 H         4.889262         2.161450        -0.112602
 H         4.914470         1.125627         1.279830
 H         3.334627         0.964425        -2.168259
 H         1.525918        -0.670737        -2.133818
 H         2.346244        -1.717841        -1.238478
