19
Iteration:  2922
 C         0.007245        -0.544297         0.207914
 C         1.383329        -0.170348         0.041922
 C         2.644675        -0.328621         1.035952
 C         3.066779         0.848492         0.153323
 C         4.573340         1.246449         0.149794
 O         4.755322         0.133372        -0.807633
 C         3.361755         0.252891        -1.227091
 C         2.191346        -0.708956        -1.288301
 O         1.785698         1.421789         0.190509
 H        -0.482645         0.034888         0.975744
 H        -0.685306        -0.298528        -0.637536
 H        -0.079844        -1.670275         0.408691
 H         2.372635        -0.194759         2.098226
 H         3.295324        -1.305349         1.128201
 H         4.898009         2.125950        -0.327202
 H         5.194311         1.049091         1.125276
 H         3.431359         0.977020        -2.027376
 H         1.736646        -0.473609        -2.275096
 H         2.248374        -1.787117        -1.301196
