19
Iteration:   696
 C         0.044552        -0.621810         0.404067
 C         1.406585        -0.141840         0.024371
 C         2.576626        -0.371430         0.985783
 C         3.156086         0.861064         0.201651
 C         4.710251         1.169176         0.283171
 O         4.762250         0.169058        -0.851314
 C         3.341909         0.356881        -1.195387
 C         2.108638        -0.597223        -1.382303
 O         1.661572         1.360693         0.016757
 H        -0.241415        -0.425602         1.480916
 H        -0.730637        -0.224893        -0.339884
 H         0.121512        -1.801853         0.286451
 H         2.320511        -0.185671         2.029435
 H         3.181719        -1.297253         0.845594
 H         5.223530         2.074883        -0.178761
 H         5.351926         0.825356         1.236570
 H         3.344774         1.145623        -2.088539
 H         1.499842        -0.248997        -2.241677
 H         2.333053        -1.706460        -1.364260
