19
Iteration:   779charge 0 multiplicity 1
 C        -0.009783        -0.448739         0.262465
 C         1.456358        -0.254771         0.052784
 C         2.640655        -0.389904         1.032164
 C         3.127042         0.845874         0.147043
 C         4.554402         1.268338         0.216307
 O         4.794086         0.168124        -0.874676
 C         3.386045         0.356139        -1.255121
 C         2.217261        -0.696099        -1.327211
 O         1.642511         1.277775         0.207206
 H        -0.299702         0.104974         1.254030
 H        -0.576094        -0.053380        -0.497189
 H        -0.252405        -1.423530         0.341893
 H         2.457627        -0.073154         2.073514
 H         3.182449        -1.358718         0.943302
 H         4.892253         2.148448        -0.168071
 H         5.159027         0.913487         0.953370
 H         3.379416         1.067548        -2.049948
 H         1.581184        -0.401522        -2.160169
 H         2.352583        -1.748062        -1.378243
