19
Iteration:  1889
 C        -0.027016        -0.530377         0.304338
 C         1.420288        -0.171045        -0.008770
 C         2.495021        -0.396511         1.028216
 C         3.135776         0.790154         0.269201
 C         4.598545         1.257593         0.184747
 O         4.902056         0.221893        -0.885362
 C         3.340488         0.280141        -1.112623
 C         2.093460        -0.685338        -1.299573
 O         1.814215         1.341368         0.041695
 H        -0.262870        -0.200865         1.320066
 H        -0.741977        -0.196355        -0.428592
 H         0.001245        -1.681981         0.353029
 H         2.094427        -0.183124         2.023903
 H         2.897648        -1.435270         0.960833
 H         4.723590         2.349482        -0.180766
 H         5.349462         1.127068         0.905649
 H         3.263268         1.230676        -1.813020
 H         1.690588        -0.279430        -2.321941
 H         2.180139        -1.793795        -1.535192
