19
Iteration:  3088
 C        -0.029772        -0.466529         0.295196
 C         1.479767        -0.149514         0.077032
 C         2.661122        -0.328534         0.961272
 C         3.043163         0.847691         0.152664
 C         4.576954         1.133722         0.220242
 O         4.847814         0.173235        -0.849343
 C         3.381906         0.285056        -1.234185
 C         2.197255        -0.718983        -1.338690
 O         1.642612         1.383660         0.150831
 H        -0.436871         0.318617         1.029295
 H        -0.554291        -0.419718        -0.666995
 H        -0.163292        -1.533689         0.580268
 H         2.333422        -0.056303         2.033905
 H         3.182931        -1.279324         0.956597
 H         4.849904         2.106806        -0.082746
 H         5.057639         0.716736         1.182528
 H         3.383270         0.969783        -2.028010
 H         1.509687        -0.741062        -2.092817
 H         2.593348        -1.739035        -1.167576
