19
Iteration:  1787
 C        -0.043418        -0.641866         0.346327
 C         1.423006        -0.145621        -0.036898
 C         2.449238        -0.362499         1.066230
 C         3.110646         0.797548         0.204113
 C         4.652070         1.241464         0.179743
 O         4.875806         0.158416        -0.831480
 C         3.370964         0.247399        -1.218549
 C         2.149557        -0.650499        -1.381858
 O         1.758792         1.477361         0.123374
 H        -0.182959        -0.552417         1.461225
 H        -0.911294        -0.292735        -0.232148
 H         0.170473        -1.700562         0.117012
 H         2.242398        -0.086310         2.136047
 H         3.136883        -1.253712         1.014687
 H         5.005956         2.219355        -0.293922
 H         5.177270         0.994257         1.104233
 H         3.588831         1.100127        -1.924205
 H         1.477961        -0.232643        -2.219212
 H         2.125055        -1.710684        -1.571752
