19
Iteration:  3988charge 0 multiplicity 1
 C         0.033719        -0.573298         0.323575
 C         1.441768        -0.172659        -0.078455
 C         2.591843        -0.346269         1.048624
 C         3.133426         0.873151         0.237575
 C         4.589353         1.281791         0.159899
 O         4.756418         0.128849        -0.826926
 C         3.337388         0.244487        -1.148020
 C         2.163772        -0.673519        -1.422468
 O         1.743760         1.349852         0.147310
 H        -0.396559        -0.156237         1.282617
 H        -0.639966        -0.153126        -0.413730
 H        -0.045379        -1.660390         0.253606
 H         2.433853         0.242567         2.021464
 H         2.955175        -1.267243         1.275039
 H         4.892140         2.273273        -0.341798
 H         5.161376         1.293215         1.142453
 H         3.446699         0.979815        -1.900100
 H         1.632661        -0.503353        -2.317930
 H         2.388850        -1.831219        -1.404574
