19
Iteration:  3804charge 0 multiplicity 1
 C         0.012224        -0.571941         0.304753
 C         1.434433        -0.073563         0.020522
 C         2.527839        -0.386470         1.023955
 C         3.163963         0.822755         0.168354
 C         4.610055         1.253940         0.124202
 O         4.780735         0.173549        -0.781023
 C         3.408807         0.275982        -1.210068
 C         2.095661        -0.682540        -1.353675
 O         1.765409         1.351346         0.126349
 H        -0.384828        -0.233006         1.331134
 H        -0.735067        -0.196151        -0.359944
 H         0.060282        -1.654769         0.402015
 H         2.204867        -0.019281         2.113198
 H         2.940011        -1.385245         1.088261
 H         4.791633         2.251900        -0.307349
 H         5.094326         1.158161         1.020172
 H         3.484578         0.979127        -2.097951
 H         1.635809        -0.729334        -2.299253
 H         2.463837        -1.740742        -1.180481
