19
Iteration:  3489charge 0 multiplicity 1
 C        -0.008709        -0.515568         0.376705
 C         1.406874        -0.107351        -0.029534
 C         2.629032        -0.355698         0.946049
 C         3.144791         0.893287         0.146743
 C         4.622631         1.250585         0.160573
 O         4.760207         0.063563        -0.674811
 C         3.338305         0.327429        -1.229951
 C         2.241376        -0.719439        -1.401266
 O         1.646188         1.333005         0.103400
 H        -0.091846        -0.253486         1.474522
 H        -0.788983        -0.051481        -0.252361
 H        -0.204400        -1.579899         0.190695
 H         2.400705         0.150953         1.968468
 H         3.303867        -1.210978         0.923452
 H         4.941581         2.248679        -0.208535
 H         5.121678         0.913614         0.988785
 H         3.328241         1.055240        -2.025616
 H         1.810416        -0.689289        -2.422275
 H         2.506834        -1.725347        -0.953447
