19
Iteration:    56
 C        -0.037818        -0.557690         0.263710
 C         1.478115        -0.186648         0.127118
 C         2.645091        -0.339357         1.034834
 C         3.144403         0.837254         0.171122
 C         4.683519         1.231265         0.210984
 O         4.723372         0.136868        -0.859224
 C         3.337024         0.390486        -1.226505
 C         2.172942        -0.679860        -1.330792
 O         1.671529         1.308144         0.125196
 H        -0.492717        -0.552105         1.189661
 H        -0.606498         0.172806        -0.329713
 H        -0.220213        -1.542638        -0.215302
 H         2.551268         0.110802         2.018099
 H         3.179514        -1.262976         0.949349
 H         4.909352         2.244352        -0.198381
 H         5.267484         0.946784         1.058992
 H         3.307052         1.083176        -2.005020
 H         1.547734        -0.456007        -2.215957
 H         2.483946        -1.728136        -1.336968
