19
Iteration:  1194
 C         0.014456        -0.608056         0.298887
 C         1.382791        -0.121606        -0.001974
 C         2.525684        -0.395916         1.016391
 C         3.130752         0.756387         0.216281
 C         4.639322         1.242245         0.204058
 O         4.908408         0.201720        -0.865823
 C         3.397249         0.326369        -1.168931
 C         2.081316        -0.624944        -1.335175
 O         1.728710         1.339173         0.109905
 H        -0.406542        -0.313263         1.360354
 H        -0.697518        -0.112602        -0.432215
 H        -0.173873        -1.650063         0.225804
 H         2.256459        -0.005388         1.987100
 H         2.893998        -1.384016         1.089560
 H         4.696329         2.307576        -0.249091
 H         5.311030         1.046699         1.027723
 H         3.429793         1.123999        -1.993943
 H         1.582650        -0.349401        -2.254208
 H         2.189162        -1.727941        -1.249400
