19
Iteration:  4170charge 0 multiplicity 1
 C         0.036484        -0.563244         0.322267
 C         1.465360        -0.148150        -0.018785
 C         2.636468        -0.283147         1.089122
 C         3.116009         0.841852         0.173783
 C         4.645827         1.228533         0.149598
 O         4.804551         0.111685        -0.809034
 C         3.376596         0.326938        -1.160604
 C         2.123453        -0.690980        -1.363703
 O         1.610487         1.302532         0.083482
 H        -0.258528        -0.103699         1.269714
 H        -0.534025        -0.003472        -0.377970
 H        -0.155070        -1.573200         0.140744
 H         2.372702         0.162740         2.087116
 H         2.991894        -1.335884         1.114142
 H         4.922749         2.223028        -0.224803
 H         5.150345         0.970080         1.151343
 H         3.279246         1.048483        -1.937929
 H         1.688843        -0.299501        -2.214317
 H         2.424150        -1.778566        -1.527272
