19
Iteration:  3428
 C        -0.037442        -0.547512         0.232278
 C         1.414270        -0.097256         0.055706
 C         2.519737        -0.322886         1.086470
 C         3.180104         0.803513         0.220030
 C         4.609511         1.317073         0.132470
 O         4.882570         0.136015        -0.895960
 C         3.395703         0.236445        -1.148411
 C         2.123467        -0.725162        -1.259134
 O         1.697918         1.322485         0.087865
 H        -0.676246        -0.026197         0.973329
 H        -0.622412        -0.231250        -0.645041
 H         0.040274        -1.591315         0.498299
 H         2.439805        -0.019855         2.140252
 H         3.010861        -1.319228         0.979637
 H         4.857506         2.365612        -0.045536
 H         5.418293         0.905073         0.955211
 H         3.300909         1.086174        -1.911654
 H         1.662487        -0.223191        -2.194032
 H         2.146396        -1.771668        -1.481484
