19
Iteration:  4765charge 0 multiplicity 1
 C        -0.031159        -0.508039         0.302067
 C         1.386807        -0.128386         0.018765
 C         2.562601        -0.404572         1.026467
 C         3.095535         0.752107         0.251668
 C         4.608854         1.250418         0.087558
 O         4.790709         0.116259        -0.792489
 C         3.360452         0.338686        -1.180386
 C         2.219931        -0.640886        -1.373342
 O         1.784254         1.355347         0.107778
 H        -0.608084        -0.131247         1.268333
 H        -0.508626        -0.442571        -0.670109
 H         0.103879        -1.616965         0.370551
 H         2.420725        -0.052542         2.099154
 H         3.002631        -1.345209         1.213049
 H         4.628714         2.213540        -0.383939
 H         5.206382         1.302584         0.999307
 H         3.366079         1.162631        -1.905656
 H         1.616664        -0.357343        -2.224165
 H         2.464932        -1.708533        -1.232372
