19
Iteration:  2573
 C        -0.028979        -0.522738         0.262002
 C         1.417899        -0.105078         0.047879
 C         2.602606        -0.409080         1.009401
 C         3.221694         0.752678         0.253319
 C         4.592028         1.252638         0.125134
 O         4.793157         0.134910        -0.821939
 C         3.387514         0.307963        -1.143715
 C         2.156229        -0.622304        -1.288107
 O         1.705685         1.363800         0.078808
 H        -0.503885        -0.067820         1.121580
 H        -0.783273        -0.359490        -0.495892
 H        -0.075836        -1.717634         0.313525
 H         2.403804        -0.118576         1.994681
 H         2.981886        -1.369750         0.955718
 H         4.538383         2.158719        -0.366324
 H         5.465072         1.156817         0.862822
 H         3.209325         1.162371        -1.828904
 H         1.656222        -0.508259        -2.279347
 H         2.270508        -1.679727        -1.402604
