19
Iteration:  1026charge 0 multiplicity 1
 C        -0.118872        -0.574471         0.310109
 C         1.385295        -0.145276         0.024153
 C         2.605546        -0.353567         1.000538
 C         3.136561         0.750832         0.187518
 C         4.537571         1.206408         0.206509
 O         4.849579         0.148594        -0.856588
 C         3.390275         0.403635        -1.189784
 C         2.204810        -0.587965        -1.339733
 O         1.757151         1.301890         0.109474
 H        -0.335677        -0.403567         1.419836
 H        -0.864858        -0.235294        -0.351325
 H        -0.027879        -1.714416         0.308372
 H         2.405211        -0.061731         2.060790
 H         3.250598        -1.283771         1.041260
 H         4.687265         2.149988        -0.206660
 H         5.251829         1.023067         1.072490
 H         3.458569         1.361004        -1.776346
 H         1.530672        -0.325382        -2.254429
 H         2.570180        -1.630136        -1.581872
