19
Iteration:  4535charge 0 multiplicity 1
 C        -0.072921        -0.516857         0.315143
 C         1.431188        -0.192006        -0.018818
 C         2.687304        -0.330484         0.924366
 C         3.133278         0.901424         0.151967
 C         4.593835         1.226250         0.227958
 O         4.733817         0.091426        -0.767457
 C         3.346163         0.316041        -1.221979
 C         2.219310        -0.707797        -1.270344
 O         1.731711         1.392681         0.091445
 H        -0.303185        -0.523603         1.312931
 H        -0.786436         0.010021        -0.301812
 H        -0.123867        -1.604092         0.072934
 H         2.509261         0.031945         1.925813
 H         3.306940        -1.291389         0.884576
 H         5.022121         2.114646        -0.323203
 H         5.062464         0.869136         1.175749
 H         3.255607         1.119568        -1.950173
 H         1.483059        -0.653813        -2.175793
 H         2.394171        -1.690299        -0.932998
