19
Iteration:  1586charge 0 multiplicity 1
 C         0.077211        -0.631087         0.302386
 C         1.440161        -0.091885        -0.001463
 C         2.539578        -0.386711         1.016330
 C         3.179468         0.771654         0.235953
 C         4.532987         1.286833         0.108343
 O         4.867944         0.062133        -0.780381
 C         3.368784         0.246102        -1.159859
 C         2.086347        -0.473016        -1.380842
 O         1.719398         1.345429         0.107763
 H        -0.174572        -0.647874         1.404365
 H        -0.725937        -0.092664        -0.206332
 H        -0.125732        -1.611371        -0.130519
 H         2.299178         0.101929         1.983351
 H         2.980940        -1.411184         1.092001
 H         4.763357         2.211440        -0.342705
 H         5.137559         1.340315         1.090750
 H         3.354182         1.126005        -1.813350
 H         1.516001        -0.151521        -2.150507
 H         2.215486        -1.569647        -1.442493
