19
Iteration:  1314charge 0 multiplicity 1
 C        -0.040009        -0.546406         0.281910
 C         1.371413        -0.132555         0.020167
 C         2.505718        -0.404750         1.010311
 C         3.205152         0.742091         0.224472
 C         4.619959         1.252711         0.187763
 O         4.830892         0.227014        -0.894649
 C         3.350931         0.349353        -1.220321
 C         2.158988        -0.665725        -1.307341
 O         1.810278         1.299714         0.155181
 H        -0.628461        -0.041920         1.120062
 H        -0.707860        -0.434546        -0.621701
 H        -0.127625        -1.528365         0.481417
 H         2.266421         0.051753         2.005483
 H         2.943052        -1.397122         1.108570
 H         4.641779         2.314665        -0.053224
 H         5.308118         1.037098         1.027822
 H         3.206133         1.183877        -1.907114
 H         1.556218        -0.532903        -2.233372
 H         2.552485        -1.733274        -1.289218
