19
Iteration:   436charge 0 multiplicity 1
 C        -0.022305        -0.543051         0.273113
 C         1.393885        -0.116900        -0.019063
 C         2.556991        -0.417149         1.045769
 C         3.141624         0.703590         0.313481
 C         4.701708         1.167249         0.189979
 O         4.798442         0.302308        -1.005156
 C         3.357767         0.360752        -1.128612
 C         2.140926        -0.672768        -1.288662
 O         1.733666         1.348763         0.084525
 H        -0.165227        -0.322450         1.275895
 H        -0.845728        -0.142233        -0.321642
 H        -0.090824        -1.701768         0.296882
 H         2.222242        -0.113128         2.069953
 H         3.087466        -1.384320         1.076258
 H         4.825163         2.260167        -0.025435
 H         5.429586         0.904480         0.942947
 H         3.081616         1.156875        -1.741493
 H         1.576823        -0.618947        -2.267213
 H         2.447238        -1.746681        -1.044419
