19
Iteration:  4458
 C         0.031128        -0.471436         0.263040
 C         1.396986        -0.091709        -0.011490
 C         2.618779        -0.387993         0.962124
 C         3.098285         0.800160         0.161565
 C         4.584977         1.230399         0.258348
 O         4.812058         0.169650        -0.853727
 C         3.314917         0.301244        -1.189095
 C         2.152427        -0.756942        -1.253522
 O         1.762620         1.359425         0.103625
 H        -0.215177         0.018763         1.126974
 H        -0.714181        -0.301344        -0.518046
 H        -0.107381        -1.525288         0.570951
 H         2.243523        -0.111057         1.919541
 H         3.007918        -1.410483         1.207233
 H         4.897099         2.303930        -0.112006
 H         5.327536         0.991057         1.062013
 H         3.210772         0.955131        -2.056315
 H         1.565651        -0.672116        -2.271774
 H         2.547898        -1.712205        -1.049657
