19
Iteration:  1202
 C        -0.019120        -0.622258         0.319686
 C         1.383100        -0.145113         0.049508
 C         2.505124        -0.406363         0.971946
 C         3.090316         0.805144         0.199201
 C         4.616154         1.211163         0.162320
 O         4.941065         0.168464        -0.844029
 C         3.346210         0.345231        -1.164501
 C         2.067184        -0.573278        -1.303815
 O         1.812288         1.330874         0.085685
 H        -0.403063        -0.386188         1.328214
 H        -0.492597        -0.125280        -0.418976
 H         0.084188        -1.629359         0.025413
 H         2.194930        -0.005610         1.952296
 H         3.099787        -1.390628         0.959532
 H         4.639818         2.232243        -0.327779
 H         5.019796         1.326542         1.308370
 H         3.402633         1.136021        -1.818441
 H         1.496635        -0.375170        -2.298288
 H         2.370225        -1.664564        -1.217473
