19
Iteration:   437charge 0 multiplicity 1
 C        -0.025438        -0.538814         0.281449
 C         1.393988        -0.127469        -0.019132
 C         2.558920        -0.415771         1.055144
 C         3.139899         0.705259         0.313865
 C         4.701626         1.157147         0.196039
 O         4.798388         0.300284        -1.004926
 C         3.362854         0.369352        -1.145035
 C         2.145281        -0.676386        -1.286155
 O         1.730395         1.349895         0.080592
 H        -0.182645        -0.322605         1.251907
 H        -0.838931        -0.124404        -0.369928
 H        -0.075993        -1.709958         0.296109
 H         2.212997        -0.144487         2.070920
 H         3.116702        -1.364307         1.065330
 H         4.828961         2.289355        -0.011025
 H         5.412595         0.894036         0.911821
 H         3.060621         1.215441        -1.754895
 H         1.565141        -0.625403        -2.223855
 H         2.443821        -1.701369        -1.037074
