19
Iteration:  4905charge 0 multiplicity 1
 C        -0.025770        -0.475722         0.275264
 C         1.518808        -0.179270         0.021470
 C         2.676209        -0.292935         0.977296
 C         3.080333         0.880279         0.208835
 C         4.615673         1.219785         0.245897
 O         4.759752         0.133875        -0.839216
 C         3.352190         0.266452        -1.177214
 C         2.155366        -0.688046        -1.282452
 O         1.679773         1.288237         0.061325
 H        -0.263157        -0.352931         1.256939
 H        -0.602049         0.238382        -0.310121
 H        -0.430254        -1.478872        -0.076792
 H         2.324678        -0.142468         2.000257
 H         3.401900        -1.100827         1.043424
 H         4.996532         2.176137        -0.100090
 H         5.170638         0.932067         1.272136
 H         3.384967         0.838175        -2.169182
 H         1.484788        -0.401546        -2.164076
 H         2.351927        -1.746725        -1.363426
