19
Iteration:  1687charge 0 multiplicity 1
 C        -0.018654        -0.578968         0.237415
 C         1.389205        -0.034145         0.049930
 C         2.509740        -0.412644         1.034973
 C         3.178865         0.695788         0.233825
 C         4.644735         1.221174         0.142769
 O         4.839424         0.239060        -0.892374
 C         3.392726         0.260174        -1.180002
 C         2.144030        -0.637638        -1.263485
 O         1.723274         1.349887         0.117077
 H        -0.441748        -0.132322         1.069595
 H        -0.669074        -0.405083        -0.678567
 H         0.115699        -1.568896         0.441135
 H         2.180873        -0.106771         2.049764
 H         2.896116        -1.457821         1.009281
 H         4.527983         2.217479        -0.178335
 H         5.453943         1.139079         0.984839
 H         3.354854         1.162051        -1.749953
 H         1.767489        -0.277656        -2.190130
 H         2.253505        -1.673487        -1.246840
