19
Iteration:   413
 C         0.033061        -0.533072         0.306937
 C         1.432828        -0.144187         0.018220
 C         2.473955        -0.416046         1.043097
 C         3.113790         0.752295         0.235799
 C         4.567324         1.296623         0.092226
 O         4.851557         0.217052        -0.896239
 C         3.392994         0.264903        -1.210143
 C         2.127570        -0.665377        -1.369007
 O         1.823938         1.363533         0.241123
 H        -0.317213        -0.554419         1.341839
 H        -0.599531        -0.010407        -0.357594
 H        -0.020653        -1.610921        -0.037832
 H         2.021654        -0.219121         2.049737
 H         2.965869        -1.405939         1.012826
 H         4.670498         2.305043        -0.274805
 H         5.269526         1.200373         0.976289
 H         3.204183         1.020885        -1.883638
 H         1.466465        -0.341731        -2.253576
 H         2.169575        -1.847771        -1.322187
