19
Iteration:  1367
 C        -0.010000        -0.507772         0.197877
 C         1.457089        -0.168122         0.026846
 C         2.686870        -0.408723         1.030803
 C         3.096950         0.867122         0.136691
 C         4.627434         1.265038         0.141818
 O         4.757015         0.135722        -0.780575
 C         3.344330         0.330139        -1.268144
 C         2.139217        -0.633157        -1.307980
 O         1.715790         1.285300         0.225315
 H        -0.431648        -0.182949         1.227872
 H        -0.687200         0.009279        -0.486077
 H        -0.182435        -1.551706         0.053756
 H         2.403140        -0.085453         2.091194
 H         3.210042        -1.423894         1.105876
 H         4.912599         2.153046        -0.255171
 H         5.069413         1.036773         1.210344
 H         3.301175         1.069133        -1.988190
 H         1.540862        -0.523721        -2.251494
 H         2.524184        -1.688463        -1.144839
