19
Iteration:  4868charge 0 multiplicity 1
 C        -0.035839        -0.581787         0.207105
 C         1.370900        -0.112051         0.044114
 C         2.610937        -0.371866         1.003486
 C         3.143831         0.820131         0.192720
 C         4.594695         1.308590         0.147226
 O         4.816227         0.070866        -0.764812
 C         3.349590         0.236265        -1.217561
 C         2.119390        -0.612337        -1.293693
 O         1.814104         1.379990         0.170897
 H        -0.321118        -0.507549         1.388772
 H        -0.809228         0.008649        -0.419794
 H        -0.003462        -1.685650        -0.070702
 H         2.094055        -0.053844         1.915690
 H         3.304604        -1.288562         1.084704
 H         4.575076         2.053349        -0.658345
 H         5.248668         1.548383         0.930897
 H         3.317379         1.040999        -1.950747
 H         1.628928        -0.381563        -2.329234
 H         2.369600        -1.709604        -1.209704
