19
Iteration:  1936charge 0 multiplicity 1
 C        -0.026420        -0.539238         0.247388
 C         1.478560        -0.179911         0.054001
 C         2.742578        -0.379684         0.981287
 C         3.072589         0.940641         0.128083
 C         4.636678         1.217208         0.206122
 O         4.697587         0.057469        -0.782166
 C         3.318317         0.351885        -1.209277
 C         2.209804        -0.646051        -1.285796
 O         1.642518         1.363565         0.126356
 H        -0.236867        -0.492508         1.238929
 H        -0.594021         0.161855        -0.450347
 H        -0.158957        -1.500584        -0.047291
 H         2.591242        -0.257713         2.048427
 H         3.350508        -1.154868         0.661990
 H         5.115645         2.039210        -0.155343
 H         5.074807         1.064041         1.280561
 H         3.409158         1.137945        -1.976079
 H         1.551565        -0.706804        -2.205552
 H         2.588446        -1.720872        -1.188980
