19
Iteration:  2255
 C         0.030391        -0.511048         0.353878
 C         1.432515        -0.126271         0.026899
 C         2.598965        -0.411104         0.946012
 C         3.115207         0.792534         0.168011
 C         4.610330         1.195023         0.217242
 O         4.808221         0.140710        -0.788975
 C         3.295583         0.320843        -1.214110
 C         2.161240        -0.659892        -1.302991
 O         1.742580         1.385464         0.027454
 H        -0.151834        -0.383083         1.500521
 H        -0.667437         0.155739        -0.170840
 H        -0.158491        -1.565054         0.115124
 H         2.365848        -0.146958         1.972289
 H         3.071049        -1.383663         0.827897
 H         4.747176         2.252839        -0.112548
 H         5.194274         0.984500         1.252035
 H         3.192572         1.150182        -1.981450
 H         1.587212        -0.415817        -2.260044
 H         2.405417        -1.784571        -1.130146
