19
Iteration:   520charge 0 multiplicity 1
 C        -0.008806        -0.648427         0.344363
 C         1.412451        -0.103051        -0.007760
 C         2.566566        -0.438050         0.997780
 C         3.152261         0.791941         0.304038
 C         4.537794         1.301486         0.121875
 O         4.852033         0.122553        -0.772357
 C         3.384632         0.289170        -1.224828
 C         2.065026        -0.479624        -1.443951
 O         1.827667         1.289977         0.166694
 H        -0.286242        -0.182493         1.429398
 H        -0.736636        -0.347552        -0.373161
 H         0.186321        -1.699836         0.293893
 H         2.094071        -0.251763         1.982810
 H         3.056236        -1.417062         1.044295
 H         4.444766         2.188220        -0.484240
 H         5.298437         1.464369         1.026336
 H         3.567164         1.084620        -2.117158
 H         1.497917         0.035966        -2.236763
 H         2.018119        -1.557270        -1.794132
