19
Iteration:  4144
 C        -0.065444        -0.521703         0.198152
 C         1.449341        -0.210387         0.041482
 C         2.705814        -0.376329         1.016699
 C         3.131530         0.936059         0.214846
 C         4.628184         1.276242         0.127833
 O         4.753648         0.051974        -0.785770
 C         3.323786         0.422347        -1.196384
 C         2.164286        -0.737391        -1.220027
 O         1.702435         1.316574         0.126489
 H        -0.388101         0.071880         1.035688
 H        -0.532383         0.010404        -0.689059
 H        -0.339552        -1.616535         0.203450
 H         2.585183        -0.202442         2.058922
 H         3.191604        -1.358469         0.755733
 H         4.759204         2.324025        -0.390979
 H         5.235313         1.147783         1.006276
 H         3.213400         1.122239        -2.085719
 H         1.686596        -0.674063        -2.289639
 H         2.566671        -1.707858        -1.067673
