19
Iteration:  4307
 C        -0.048647        -0.543906         0.328254
 C         1.391252        -0.143189         0.035730
 C         2.550920        -0.365374         1.078396
 C         3.083110         0.833342         0.142439
 C         4.587688         1.189725         0.215237
 O         4.841288         0.219202        -0.856225
 C         3.344645         0.280423        -1.223683
 C         2.262055        -0.763436        -1.340008
 O         1.819683         1.382480         0.054630
 H        -0.440052        -0.022054         1.216582
 H        -0.809938        -0.044433        -0.377383
 H        -0.297625        -1.660332         0.298390
 H         2.385743         0.154646         1.981934
 H         3.060653        -1.355293         1.127390
 H         4.725089         2.216803        -0.175332
 H         5.135546         0.970804         1.068960
 H         3.197505         1.276586        -1.782881
 H         1.378157        -0.739283        -2.093933
 H         2.374300        -1.791345        -1.108365
