19
Iteration:  3900charge 0 multiplicity 1
 C        -0.017617        -0.565821         0.254234
 C         1.419558        -0.080065        -0.013545
 C         2.543752        -0.399253         1.021701
 C         3.161010         0.782242         0.301577
 C         4.603993         1.324710         0.073131
 O         4.785684         0.100774        -0.803399
 C         3.338510         0.348683        -1.160316
 C         2.142865        -0.640848        -1.290067
 O         1.799153         1.316055         0.117482
 H        -0.539055        -0.319616         1.202227
 H        -0.586008        -0.252702        -0.603008
 H         0.040303        -1.643446         0.254152
 H         2.484779        -0.102076         2.071647
 H         3.028340        -1.306481         0.942469
 H         4.653233         2.274344        -0.539760
 H         5.357474         1.357999         0.918738
 H         3.252206         1.007366        -1.988131
 H         1.570913        -0.679246        -2.141513
 H         2.404883        -1.756898        -1.206051
