19
Iteration:  4908charge 0 multiplicity 1
 C        -0.048925        -0.484720         0.287582
 C         1.529508        -0.181972        -0.009534
 C         2.661488        -0.270227         0.975647
 C         3.102585         0.884772         0.240335
 C         4.605246         1.211648         0.250967
 O         4.756969         0.127819        -0.838391
 C         3.336506         0.291449        -1.189934
 C         2.173963        -0.701494        -1.305412
 O         1.686628         1.279947         0.061471
 H        -0.251024        -0.294742         1.339645
 H        -0.576652         0.221411        -0.307524
 H        -0.427398        -1.395449        -0.012907
 H         2.369834        -0.147802         2.050244
 H         3.342170        -1.068206         0.958598
 H         4.945223         2.236791        -0.060269
 H         5.132117         0.850729         1.155056
 H         3.436010         0.790333        -2.156707
 H         1.511284        -0.440081        -2.044956
 H         2.421982        -1.789274        -1.315819
