19
Iteration:  4012
 C         0.020217        -0.628296         0.270048
 C         1.473812        -0.138386         0.085346
 C         2.577664        -0.367120         0.989689
 C         3.133206         0.864491         0.248959
 C         4.572788         1.235058         0.074134
 O         4.820169         0.108470        -0.727148
 C         3.430150         0.265456        -1.213452
 C         2.076771        -0.519289        -1.276555
 O         1.711893         1.319431         0.042356
 H        -0.421865        -0.410566         1.230473
 H        -0.643841        -0.145318        -0.453106
 H         0.012440        -1.721346         0.150631
 H         2.322062        -0.156483         2.107399
 H         3.083252        -1.322469         0.985949
 H         4.737983         2.169395        -0.612772
 H         5.158669         1.481165         0.932981
 H         3.613416         1.103734        -1.888126
 H         1.284430        -0.322843        -2.078339
 H         2.255559        -1.583799        -1.380353
