19
Iteration:  3676
 C        -0.074053        -0.524616         0.317764
 C         1.489731        -0.174965         0.056370
 C         2.726980        -0.250303         0.994228
 C         3.111068         0.890251         0.156992
 C         4.609490         1.240935         0.189651
 O         4.797413         0.031371        -0.746594
 C         3.348322         0.341117        -1.242776
 C         2.194676        -0.680851        -1.371513
 O         1.613471         1.303953         0.101214
 H        -0.274786        -0.305594         1.375138
 H        -0.781642        -0.156075        -0.449776
 H        -0.246427        -1.623252         0.208282
 H         2.387916         0.157769         1.955449
 H         3.110539        -1.220087         0.930554
 H         5.050936         2.161073        -0.340993
 H         5.142838         0.982818         1.115032
 H         3.360569         1.128277        -1.961273
 H         1.495542        -0.471103        -2.212373
 H         2.631058        -1.637821        -1.327942
