19
Iteration:  2561charge 0 multiplicity 1
 C        -0.000496        -0.528300         0.244842
 C         1.417389        -0.138153         0.002609
 C         2.534545        -0.430437         1.051373
 C         3.136443         0.789375         0.275490
 C         4.670938         1.294557         0.085496
 O         4.824525         0.130878        -0.845091
 C         3.344691         0.297817        -1.113886
 C         2.099086        -0.575071        -1.304792
 O         1.759390         1.269968         0.085991
 H        -0.350793         0.044193         1.141656
 H        -0.515749        -0.335530        -0.675170
 H        -0.033229        -1.619436         0.567446
 H         2.193372        -0.087681         2.012596
 H         3.063984        -1.341748         1.049150
 H         4.696967         2.209100        -0.451859
 H         5.352384         1.318889         1.005797
 H         3.350680         1.092104        -1.911151
 H         1.509665        -0.122816        -2.113219
 H         2.289023        -1.610842        -1.201253
