19
Iteration:   846
 C        -0.048067        -0.591298         0.241462
 C         1.442987        -0.235129         0.004910
 C         2.660579        -0.299685         1.048259
 C         3.130693         0.841713         0.232792
 C         4.639557         1.235354         0.218195
 O         4.776894         0.103076        -0.859065
 C         3.285410         0.412199        -1.239926
 C         2.157816        -0.660096        -1.366869
 O         1.728959         1.325962         0.161312
 H        -0.403031        -0.099572         1.203750
 H        -0.702034        -0.165703        -0.525794
 H        -0.189723        -1.605347         0.274744
 H         2.540277         0.024515         2.093237
 H         3.295712        -1.230941         1.078036
 H         4.797126         2.176873        -0.130271
 H         5.178085         1.035363         1.121049
 H         3.390762         1.248489        -1.919250
 H         1.462791        -0.539832        -2.168470
 H         2.634455        -1.664905        -1.357663
