19
Iteration:  3642
 C         0.088635        -0.523035         0.247788
 C         1.443336        -0.166196        -0.026580
 C         2.622426        -0.362556         0.957635
 C         3.088015         0.845423         0.221567
 C         4.536364         1.299765         0.144085
 O         4.809140         0.045400        -0.749912
 C         3.302735         0.289025        -1.192472
 C         2.177268        -0.659062        -1.290155
 O         1.736751         1.381614         0.111290
 H        -0.244465        -0.123141         1.291142
 H        -0.663785        -0.036470        -0.425769
 H         0.058798        -1.605905         0.370255
 H         2.490453        -0.219365         2.106893
 H         3.028031        -1.322452         1.043475
 H         4.664232         2.319818        -0.461060
 H         5.114907         1.322419         1.047483
 H         3.319450         1.010670        -1.969964
 H         1.478474        -0.613733        -2.117032
 H         2.244269        -1.762734        -1.237721
