19
Iteration:   243charge 0 multiplicity 1
 C        -0.011372        -0.508890         0.319944
 C         1.411920        -0.136847         0.026683
 C         2.620411        -0.400241         0.956637
 C         3.158892         0.786715         0.213801
 C         4.632466         1.281171         0.099440
 O         4.815535         0.236971        -0.815224
 C         3.353520         0.241011        -1.169814
 C         2.153017        -0.687524        -1.337962
 O         1.700091         1.286048         0.195745
 H        -0.321873        -0.328342         1.274828
 H        -0.682431         0.161119        -0.377402
 H        -0.201341        -1.572760         0.007425
 H         2.364583        -0.066497         1.948600
 H         2.995504        -1.387002         0.929782
 H         4.690539         2.336487        -0.359101
 H         5.280127         1.148417         0.884971
 H         3.330686         0.983040        -1.909055
 H         1.620105        -0.323388        -2.207576
 H         2.179021        -1.742685        -1.406985
