19
Iteration:  2953
 C         0.006810        -0.518719         0.323327
 C         1.394257        -0.131695         0.024655
 C         2.614279        -0.367784         1.104191
 C         3.154261         0.751624         0.201187
 C         4.627641         1.248321         0.167942
 O         4.882572         0.163491        -0.738080
 C         3.328269         0.314321        -1.231929
 C         2.037938        -0.612034        -1.328387
 O         1.724510         1.310744        -0.014335
 H        -0.190054        -0.370172         1.400942
 H        -0.779766        -0.221980        -0.413193
 H        -0.144092        -1.663231         0.145074
 H         2.225805         0.048798         1.976656
 H         3.225450        -1.276785         0.981264
 H         4.904240         2.134361        -0.364477
 H         5.278511         1.082210         1.089185
 H         3.268753         1.047299        -2.024132
 H         1.705071        -0.404100        -2.395819
 H         2.161032        -1.688184        -1.314186
