19
Iteration:   348
 C         0.031026        -0.607367         0.354498
 C         1.428399        -0.175409         0.029395
 C         2.605497        -0.321552         0.938270
 C         3.134742         0.824939         0.163413
 C         4.555088         1.172141         0.199927
 O         4.796234         0.121660        -0.850909
 C         3.310394         0.395268        -1.239633
 C         2.154288        -0.591354        -1.337735
 O         1.729549         1.330674         0.155216
 H        -0.210515        -0.232183         1.359464
 H        -0.635844        -0.199038        -0.356469
 H         0.006437        -1.726463         0.358952
 H         2.220648         0.066289         1.923986
 H         3.283795        -1.185239         1.071348
 H         4.977994         2.161853        -0.068747
 H         5.062760         0.834153         1.157573
 H         3.400254         1.271286        -1.880922
 H         1.563191        -0.460610        -2.279001
 H         2.609675        -1.644716        -1.283866
