19
Iteration:  1097
 C        -0.018084        -0.576857         0.264812
 C         1.403965        -0.151268         0.074551
 C         2.540654        -0.460298         1.012832
 C         3.136226         0.820398         0.244590
 C         4.587540         1.246907         0.119561
 O         4.822783         0.147634        -0.773008
 C         3.354650         0.386302        -1.223418
 C         2.174767        -0.556783        -1.336479
 O         1.801821         1.293714         0.083824
 H        -0.419339        -0.535540         1.337087
 H        -0.859431        -0.252623        -0.465917
 H         0.044569        -1.690099         0.211002
 H         2.418403        -0.070554         2.022372
 H         2.889538        -1.458421         1.108657
 H         4.575292         2.279362        -0.355252
 H         5.248083         1.215941         0.912757
 H         3.460638         1.305013        -1.852359
 H         1.534157        -0.266619        -2.104408
 H         2.291130        -1.606598        -1.490642
