19
Iteration:  4527
 C        -0.012556        -0.505611         0.248233
 C         1.458427        -0.166517        -0.001196
 C         2.700511        -0.380573         0.971147
 C         3.085216         0.894770         0.125366
 C         4.617325         1.169681         0.203663
 O         4.697090         0.082940        -0.779299
 C         3.331210         0.338251        -1.183490
 C         2.203984        -0.689113        -1.250905
 O         1.699599         1.391494         0.115121
 H        -0.258467        -0.494059         1.366824
 H        -0.748236         0.038823        -0.319739
 H        -0.293763        -1.489778         0.012538
 H         2.695814         0.069636         2.004798
 H         3.377087        -1.176201         1.122570
 H         4.859676         2.105965        -0.381182
 H         5.081628         1.293349         1.135301
 H         3.249184         0.928488        -2.118886
 H         1.877886        -0.508684        -2.246353
 H         2.524369        -1.806664        -1.129604
