19
Iteration:  1408charge 0 multiplicity 1
 C         0.098431        -0.582357         0.343861
 C         1.404105        -0.110186        -0.076434
 C         2.544130        -0.390948         1.021801
 C         3.149477         0.821399         0.241727
 C         4.638103         1.245787         0.166463
 O         4.830534         0.150981        -0.756861
 C         3.355323         0.299772        -1.175200
 C         2.041222        -0.588954        -1.413010
 O         1.724779         1.333427         0.077268
 H        -0.001670        -0.761050         1.467144
 H        -0.693337        -0.022312         0.015791
 H        -0.087321        -1.703404         0.001714
 H         2.038232        -0.003539         1.923546
 H         3.152522        -1.324567         1.060226
 H         5.007388         2.339421        -0.193938
 H         5.276744         0.915955         1.085831
 H         3.423559         1.036779        -2.069512
 H         1.433159        -0.413436        -2.312419
 H         2.125059        -1.661971        -1.244397
