19
Iteration:  4997
 C         0.036513        -0.513752         0.222487
 C         1.432736        -0.145484         0.054497
 C         2.648868        -0.364816         0.990384
 C         3.105803         0.861661         0.150900
 C         4.580616         1.189994         0.139259
 O         4.760824         0.072086        -0.737409
 C         3.379032         0.284428        -1.208302
 C         2.174149        -0.609444        -1.334178
 O         1.655793         1.343052         0.184471
 H        -0.549486         0.198800         0.884589
 H        -0.387461        -0.551060        -0.766868
 H        -0.092344        -1.467294         0.518439
 H         2.736912         0.118683         2.009008
 H         3.339129        -1.228341         1.218773
 H         4.898861         2.120379        -0.519595
 H         5.166197         1.252619         1.038862
 H         3.408143         1.100960        -1.989765
 H         1.407611        -0.453488        -2.066013
 H         2.435859        -1.686043        -1.481874
