19
Iteration:  2886charge 0 multiplicity 1
 C        -0.002932        -0.494052         0.228518
 C         1.482835        -0.153737         0.065319
 C         2.592449        -0.382517         1.078146
 C         3.079909         0.872608         0.188974
 C         4.659933         1.184065         0.148766
 O         4.743528         0.115492        -0.881715
 C         3.379499         0.315668        -1.155021
 C         2.236295        -0.629433        -1.241221
 O         1.631668         1.290387         0.062332
 H        -0.255688         0.260874         1.020249
 H        -0.391815        -0.339095        -0.774072
 H        -0.115493        -1.501431         0.658903
 H         2.267619        -0.049796         2.000039
 H         3.230036        -1.218076         0.996642
 H         4.832533         2.148559        -0.282417
 H         5.177031         1.062060         1.055903
 H         3.288284         1.082831        -1.889140
 H         1.530107        -0.379812        -2.054414
 H         2.620955        -1.633278        -1.212923
