19
Iteration:  2017
 C         0.042088        -0.451052         0.283225
 C         1.511344        -0.162531         0.004839
 C         2.604085        -0.445908         0.984054
 C         3.064698         0.866714         0.201977
 C         4.605543         1.221828         0.243980
 O         4.751149         0.195141        -0.869226
 C         3.340109         0.321259        -1.224599
 C         2.179906        -0.729068        -1.338079
 O         1.728257         1.339375         0.145785
 H        -0.563461         0.258873         1.024131
 H        -0.712531        -0.355040        -0.458807
 H        -0.336676        -1.512111         0.627108
 H         2.439537        -0.134700         2.038868
 H         3.216348        -1.434343         0.990470
 H         4.948336         2.238709        -0.054039
 H         5.046433         0.742554         1.127871
 H         3.390515         1.011100        -2.009195
 H         1.652670        -0.598605        -2.258738
 H         2.404086        -1.736854        -1.148068
