19
Iteration:  4534
 C        -0.067237        -0.508345         0.310054
 C         1.435679        -0.191985        -0.022063
 C         2.688686        -0.338886         0.927433
 C         3.130788         0.902528         0.148472
 C         4.595867         1.220322         0.222579
 O         4.726787         0.091228        -0.768348
 C         3.343962         0.318964        -1.216193
 C         2.222302        -0.709138        -1.263168
 O         1.726845         1.395031         0.094085
 H        -0.298462        -0.551673         1.304721
 H        -0.804869         0.011038        -0.320823
 H        -0.157513        -1.633908         0.071690
 H         2.563881         0.043071         1.919479
 H         3.342775        -1.299545         0.936001
 H         4.994360         2.087519        -0.345565
 H         5.077533         0.912010         1.229993
 H         3.235154         1.100290        -1.974371
 H         1.516068        -0.614592        -2.204611
 H         2.398346        -1.669178        -0.942176
