19
Iteration:  4929
 C        -0.010292        -0.450095         0.356533
 C         1.448782        -0.178413         0.024167
 C         2.571533        -0.384371         0.977905
 C         3.027857         0.778035         0.135885
 C         4.635058         1.158800         0.224459
 O         4.780564         0.147963        -0.816224
 C         3.352096         0.377905        -1.208754
 C         2.262697        -0.692022        -1.348055
 O         1.692114         1.357540         0.063737
 H        -0.139024        -0.139990         1.351343
 H        -0.702849         0.003250        -0.291767
 H        -0.241297        -1.468386         0.295986
 H         2.248271        -0.006975         1.994329
 H         3.104328        -1.238216         1.217239
 H         5.003137         2.106787        -0.264396
 H         5.138175         1.024966         1.257056
 H         3.294774         1.265262        -1.941826
 H         1.813138        -0.827383        -2.284222
 H         2.788860        -1.643311        -1.073435
