19
Iteration:  2950
 C         0.044774        -0.533634         0.295641
 C         1.381832        -0.113852         0.039713
 C         2.623007        -0.371936         1.067760
 C         3.145158         0.755560         0.190689
 C         4.620639         1.245380         0.198477
 O         4.886322         0.159012        -0.760372
 C         3.329162         0.283809        -1.213933
 C         2.022941        -0.603476        -1.303728
 O         1.726947         1.312383        -0.010829
 H        -0.252402        -0.274659         1.356533
 H        -0.724884        -0.216315        -0.391322
 H        -0.093369        -1.583503         0.146993
 H         2.198976        -0.018233         2.006601
 H         3.186455        -1.277012         1.122202
 H         4.836960         2.234023        -0.407367
 H         5.222151         1.146586         1.034956
 H         3.392594         1.124784        -2.018009
 H         1.557265        -0.425255        -2.314540
 H         2.184658        -1.712795        -1.319006
