19
Iteration:  4957charge 0 multiplicity 1
 C         0.002211        -0.520491         0.248943
 C         1.442349        -0.154503         0.023752
 C         2.548477        -0.318086         1.007220
 C         3.069321         0.739192         0.178694
 C         4.640330         1.195739         0.175177
 O         4.858023         0.185752        -0.799776
 C         3.363983         0.307260        -1.144580
 C         2.085354        -0.724312        -1.336643
 O         1.769356         1.398340         0.090969
 H        -0.253526         0.110909         1.156867
 H        -0.783284        -0.487007        -0.593641
 H         0.003293        -1.640746         0.661742
 H         2.381814        -0.117389         2.049842
 H         3.082981        -1.343549         0.965727
 H         4.761574         2.140645        -0.316301
 H         5.212177         1.128336         1.095768
 H         3.238489         1.220432        -1.707815
 H         1.646281        -0.380428        -2.370724
 H         2.179178        -1.789310        -1.260394
