19
Iteration:  3916charge 0 multiplicity 1
 C         0.021291        -0.538564         0.220236
 C         1.437750        -0.209096         0.062824
 C         2.534256        -0.356890         1.122540
 C         3.148725         0.756256         0.180130
 C         4.541168         1.249471         0.126910
 O         4.850425         0.160351        -0.884496
 C         3.357181         0.275531        -1.195374
 C         2.161899        -0.641101        -1.329352
 O         1.767043         1.364946         0.154064
 H        -0.267743         0.032529         1.095727
 H        -0.716625        -0.106863        -0.496999
 H        -0.060094        -1.647522         0.410934
 H         1.923516         0.073091         1.942340
 H         3.015872        -1.404451         1.373083
 H         4.577445         2.227300        -0.362857
 H         5.250059         1.318703         0.933177
 H         3.309863         1.291463        -1.772466
 H         1.535751        -0.479965        -2.315645
 H         2.459538        -1.657918        -1.204195
