19
Iteration:  2003
 C        -0.040011        -0.517082         0.302611
 C         1.372931        -0.204651        -0.021011
 C         2.583790        -0.365047         0.998066
 C         3.155167         0.766434         0.203161
 C         4.641574         1.216461         0.184032
 O         4.834629         0.218673        -0.821453
 C         3.330361         0.302820        -1.146568
 C         2.121319        -0.674066        -1.346756
 O         1.758511         1.350134         0.102808
 H        -0.154745         0.132155         1.192768
 H        -0.578060        -0.310796        -0.658353
 H         0.087473        -1.481982         0.633487
 H         2.245084        -0.196981         2.026961
 H         3.121325        -1.316546         0.863468
 H         4.883432         2.191912        -0.200262
 H         5.309568         1.112255         1.168338
 H         3.032416         1.166645        -1.813413
 H         1.540737        -0.442298        -2.257048
 H         2.369070        -1.770723        -1.368616
