19
Iteration:  1055
 C         0.128503        -0.514332         0.314200
 C         1.511106        -0.236390        -0.040985
 C         2.623495        -0.340851         0.870306
 C         3.022269         0.911409         0.109641
 C         4.608895         1.137114         0.256528
 O         4.732035         0.205579        -0.743194
 C         3.376875         0.367824        -1.213869
 C         2.112236        -0.686243        -1.301765
 O         1.655691         1.322044         0.170411
 H        -0.026972        -0.293748         1.291380
 H        -0.457516         0.261859        -0.311123
 H        -0.063813        -1.576143         0.091097
 H         2.291981        -0.255665         1.955829
 H         3.324570        -1.186296         0.708742
 H         5.161943         2.074826        -0.097100
 H         4.968784         0.580194         1.270001
 H         3.405285         1.018649        -2.046216
 H         1.467381        -0.521510        -2.172538
 H         2.444630        -1.719176        -1.279383
