19
Iteration:  3935
 C        -0.009889        -0.464891         0.299902
 C         1.445815        -0.228694         0.002475
 C         2.576359        -0.323875         1.075694
 C         3.084318         0.848116         0.204720
 C         4.654668         1.205462         0.221529
 O         4.783572         0.260905        -0.908994
 C         3.350540         0.273036        -1.219732
 C         2.188252        -0.766666        -1.285126
 O         1.732949         1.277571         0.095169
 H        -0.493433         0.155126         1.041490
 H        -0.498056        -0.190482        -0.609036
 H        -0.243549        -1.507492         0.295444
 H         2.363736         0.047649         2.143480
 H         3.205905        -1.148072         0.974610
 H         4.910906         2.307871         0.078050
 H         5.192808         0.772742         1.023073
 H         3.241069         1.064356        -1.954887
 H         1.677271        -0.284669        -2.092106
 H         2.227135        -1.861863        -1.302499
