19
Iteration:  4089charge 0 multiplicity 1
 C        -0.090140        -0.516049         0.320305
 C         1.371526        -0.192372         0.050371
 C         2.563607        -0.362638         1.032723
 C         3.113015         0.794703         0.253982
 C         4.688969         1.206354         0.171477
 O         4.881460         0.242514        -0.888402
 C         3.339768         0.318021        -1.127791
 C         2.134670        -0.683102        -1.295561
 O         1.743074         1.297850        -0.015614
 H        -0.326802        -0.202640         1.316456
 H        -0.686894        -0.153530        -0.538926
 H        -0.174345        -1.623559         0.483886
 H         2.256899         0.004708         2.032048
 H         3.251784        -1.257013         1.091171
 H         4.620586         2.365652        -0.123423
 H         5.410002         0.949910         0.930555
 H         3.294309         1.230290        -1.800953
 H         1.915667        -0.535020        -2.455188
 H         2.317685        -1.720856        -1.169990
