19
Iteration:  2096charge 0 multiplicity 1
 C         0.011161        -0.578432         0.311407
 C         1.405894        -0.103971         0.009392
 C         2.536415        -0.368139         1.030991
 C         3.119042         0.770394         0.225224
 C         4.608415         1.251367         0.153310
 O         4.809872         0.111342        -0.758723
 C         3.339435         0.321564        -1.286532
 C         2.102052        -0.625273        -1.363459
 O         1.830443         1.369380         0.158180
 H        -0.350270        -0.740420         1.322527
 H        -0.683937        -0.036070        -0.381443
 H        -0.022619        -1.704505        -0.039374
 H         2.168946         0.109962         1.967321
 H         3.190464        -1.269401         1.106937
 H         4.814667         2.255861        -0.403523
 H         5.228863         1.316384         0.965801
 H         3.429187         0.962103        -2.089502
 H         1.571791        -0.427270        -2.292147
 H         2.269410        -1.684491        -1.333333
