19
Iteration:    38charge 0 multiplicity 1
 C        -0.018660        -0.659770         0.217552
 C         1.404552        -0.136171         0.031981
 C         2.557272        -0.380309         1.049236
 C         3.111824         0.797881         0.216440
 C         4.567527         1.207438         0.060616
 O         4.865787         0.116499        -0.860519
 C         3.357102         0.331409        -1.199989
 C         2.120359        -0.511928        -1.210837
 O         1.813131         1.376891         0.152685
 H        -0.215891        -0.703622         1.310426
 H        -0.923220         0.051409        -0.200368
 H        -0.116969        -1.741598        -0.133436
 H         2.231998        -0.102702         2.066377
 H         3.070035        -1.336994         1.169748
 H         4.649597         2.174162        -0.485710
 H         5.216003         1.246515         0.931665
 H         3.295686         1.341032        -1.861366
 H         1.559524        -0.504362        -2.211459
 H         2.504322        -1.616857        -1.068422
