19
Iteration:  2868
 C         0.006608        -0.528020         0.276715
 C         1.399535        -0.234698         0.004153
 C         2.608607        -0.266755         1.094238
 C         3.146232         0.809521         0.230242
 C         4.589550         1.210547         0.191609
 O         4.844457         0.196678        -0.844942
 C         3.309351         0.292426        -1.191414
 C         2.080565        -0.736847        -1.351397
 O         1.774608         1.363126         0.040863
 H        -0.396726        -0.001040         1.136087
 H        -0.547464        -0.282093        -0.666762
 H        -0.010071        -1.622166         0.577640
 H         2.279964         0.041038         2.139677
 H         3.157413        -1.333451         1.196729
 H         4.910875         2.219695        -0.095653
 H         5.259218         0.938424         1.142255
 H         3.327190         1.148359        -1.910268
 H         1.602971        -0.309283        -2.238436
 H         2.155536        -1.826799        -1.298365
