19
Iteration:  4481charge 0 multiplicity 1
 C        -0.072738        -0.563705         0.218152
 C         1.423952        -0.151654         0.077112
 C         2.558251        -0.297538         1.084191
 C         3.135351         0.788244         0.266657
 C         4.577507         1.264405         0.084489
 O         4.847983         0.163369        -0.829455
 C         3.397380         0.189271        -1.178644
 C         2.152300        -0.627044        -1.307492
 O         1.785395         1.353637         0.089795
 H        -0.443505        -0.213096         1.143696
 H        -0.642894        -0.080492        -0.565071
 H        -0.392564        -1.579357         0.203303
 H         2.416756        -0.242127         2.137435
 H         3.045138        -1.291144         0.962286
 H         4.698540         2.372180        -0.224964
 H         5.384744         1.051474         0.759417
 H         3.278381         0.994717        -1.924248
 H         1.437468        -0.348242        -2.161775
 H         2.353633        -1.676853        -1.254371
