19
Iteration:  1689
 C        -0.000133        -0.575575         0.234893
 C         1.382656        -0.022801         0.064873
 C         2.496927        -0.428630         1.034316
 C         3.176932         0.693836         0.226957
 C         4.653306         1.230691         0.145426
 O         4.827787         0.245579        -0.876170
 C         3.375042         0.249058        -1.194367
 C         2.141297        -0.637101        -1.259449
 O         1.736206         1.340080         0.114737
 H        -0.470326        -0.102751         1.071911
 H        -0.522580        -0.365966        -0.628063
 H         0.162455        -1.610067         0.387609
 H         2.201811        -0.086357         2.050423
 H         2.886137        -1.451562         1.039410
 H         4.538078         2.261884        -0.276491
 H         5.368833         1.107935         0.944745
 H         3.417474         1.200502        -1.703898
 H         1.744725        -0.237688        -2.324155
 H         2.266711        -1.716374        -1.237691
