19
Iteration:  4965charge 0 multiplicity 1
 C        -0.013074        -0.557552         0.249666
 C         1.413522        -0.181010         0.016496
 C         2.617430        -0.392841         1.044864
 C         3.115109         0.800748         0.218478
 C         4.632512         1.208910         0.178069
 O         4.869345         0.187807        -0.788613
 C         3.319204         0.237641        -1.129818
 C         2.045634        -0.661344        -1.361262
 O         1.779176         1.420406         0.071322
 H        -0.635187         0.134154         0.945178
 H        -0.512387        -0.411718        -0.723451
 H        -0.047774        -1.528087         0.618109
 H         2.330080         0.109657         1.955806
 H         3.316300        -1.259338         0.927776
 H         4.789057         2.220580        -0.366392
 H         5.202059         1.138568         1.058399
 H         3.373195         1.022941        -1.895835
 H         1.295610        -0.394803        -2.111850
 H         2.280872        -1.735909        -1.353771
