19
Iteration:  1845
 C         0.020967        -0.446235         0.196252
 C         1.481214        -0.361825         0.013358
 C         2.666686        -0.327545         0.955279
 C         3.079094         0.884577         0.157799
 C         4.611026         1.192748         0.184004
 O         4.716676         0.147977        -0.796048
 C         3.322912         0.344997        -1.212975
 C         2.183068        -0.697528        -1.305618
 O         1.733024         1.351312         0.258864
 H        -0.441878         0.308361         0.865407
 H        -0.385839        -0.333444        -0.750722
 H        -0.474822        -1.411090         0.513512
 H         2.368036         0.046090         1.942709
 H         3.437830        -1.132346         0.998378
 H         5.000058         2.225668        -0.195130
 H         5.073547         1.018516         1.103715
 H         3.269079         1.151250        -2.084127
 H         1.364862        -0.652091        -2.185688
 H         2.541033        -1.800201        -1.291437
