19
Iteration:  2721charge 0 multiplicity 1
 C         0.028500        -0.457303         0.291708
 C         1.456779        -0.168176        -0.038338
 C         2.618207        -0.299057         1.101946
 C         3.105907         0.900660         0.213193
 C         4.597251         1.140264         0.184711
 O         4.810036         0.124603        -0.883918
 C         3.353170         0.352937        -1.192553
 C         2.179185        -0.651776        -1.332520
 O         1.649435         1.226076         0.101888
 H        -0.238516         0.282091         1.200896
 H        -0.678943        -0.523044        -0.590652
 H        -0.098346        -1.473106         0.687325
 H         2.218008         0.126290         2.073317
 H         3.148670        -1.325004         1.089388
 H         4.823290         2.225983        -0.049386
 H         5.055963         0.832615         1.067109
 H         3.497553         1.121057        -1.921091
 H         1.701072        -0.463121        -2.320905
 H         2.477501        -1.745258        -1.293292
