19
Iteration:  3378
 C         0.023998        -0.440108         0.252131
 C         1.492619        -0.156948         0.059308
 C         2.651452        -0.401271         1.014538
 C         3.098514         0.919074         0.187140
 C         4.577245         1.219480         0.193812
 O         4.739961         0.117817        -0.819496
 C         3.352457         0.256651        -1.170115
 C         2.217299        -0.707827        -1.279063
 O         1.648266         1.335764         0.063452
 H        -0.445458         0.020669         1.098567
 H        -0.524711        -0.071084        -0.643233
 H        -0.193001        -1.556250         0.363497
 H         2.503548        -0.100708         2.051414
 H         3.322397        -1.278649         0.741409
 H         5.007384         2.117964        -0.302338
 H         5.104009         1.134958         1.065041
 H         3.257944         1.024539        -1.923180
 H         1.674174        -0.542022        -2.177921
 H         2.442083        -1.793128        -1.095789
