19
Iteration:  4592
 C        -0.044141        -0.512712         0.323274
 C         1.452012        -0.245403         0.032287
 C         2.585058        -0.396000         1.060321
 C         3.121370         0.841779         0.221000
 C         4.626935         1.198999         0.189892
 O         4.820693         0.126478        -0.812778
 C         3.311323         0.334454        -1.163996
 C         2.162267        -0.601997        -1.383452
 O         1.741171         1.372283         0.034937
 H        -0.458724         0.227129         1.057049
 H        -0.566777        -0.525176        -0.598051
 H        -0.039975        -1.493373         0.624432
 H         2.446726         0.014881         2.138651
 H         3.034586        -1.387796         1.120478
 H         5.002001         2.068423        -0.504660
 H         5.280785         1.307439         1.013790
 H         3.326211         1.112572        -1.925391
 H         1.492670        -0.492662        -2.244440
 H         2.243104        -1.759020        -1.415500
