19
Iteration:  4090charge 0 multiplicity 1
 C        -0.088091        -0.515057         0.313449
 C         1.368965        -0.200169         0.055106
 C         2.553799        -0.365782         1.030969
 C         3.117929         0.792054         0.251559
 C         4.693989         1.214076         0.169336
 O         4.885743         0.244947        -0.888315
 C         3.342208         0.304053        -1.129836
 C         2.129495        -0.680812        -1.290455
 O         1.741241         1.306215        -0.009770
 H        -0.296273        -0.211890         1.300619
 H        -0.674556        -0.155598        -0.548345
 H        -0.153643        -1.603618         0.491459
 H         2.237654         0.017278         1.998098
 H         3.280607        -1.282418         1.100886
 H         4.625673         2.371153        -0.136117
 H         5.398436         0.953502         0.948296
 H         3.254101         1.232984        -1.790057
 H         1.882908        -0.519674        -2.460727
 H         2.322266        -1.717942        -1.168553
