19
Iteration:   971charge 0 multiplicity 1
 C        -0.106632        -0.523210         0.172717
 C         1.429683        -0.205378         0.144649
 C         2.710617        -0.485580         1.010134
 C         3.117878         0.846865         0.153357
 C         4.537636         1.217737         0.192746
 O         4.754216         0.159615        -0.865216
 C         3.327237         0.385857        -1.237577
 C         2.253016        -0.626400        -1.281957
 O         1.755372         1.364115         0.198039
 H        -0.590260         0.113090         0.975125
 H        -0.560262        -0.178230        -0.753851
 H        -0.491928        -1.635424         0.246117
 H         2.490266        -0.076526         2.040542
 H         3.176667        -1.499117         0.922978
 H         4.737086         2.210871        -0.101842
 H         5.296663         0.949238         1.021555
 H         3.541502         1.180877        -2.019303
 H         1.632384        -0.618184        -2.262342
 H         2.707521        -1.660529        -1.066656
