19
Iteration:  3069
 C        -0.011212        -0.514256         0.248149
 C         1.431877        -0.214565        -0.010018
 C         2.566274        -0.416021         1.011376
 C         3.142192         0.852293         0.256414
 C         4.582322         1.247516         0.191552
 O         4.726597         0.137167        -0.844475
 C         3.316408         0.322251        -1.189113
 C         2.182990        -0.707541        -1.251735
 O         1.817949         1.408528         0.078464
 H        -0.211175         0.220288         1.035618
 H        -0.638915        -0.501563        -0.604856
 H        -0.154297        -1.477380         0.609172
 H         2.337252        -0.077517         2.057287
 H         3.183684        -1.328862         0.897583
 H         4.845598         2.184768        -0.322375
 H         5.226628         1.048803         0.963341
 H         3.232187         1.226557        -1.810864
 H         1.768770        -0.624701        -2.264103
 H         2.493117        -1.753805        -1.211706
