19
Iteration:   635
 C        -0.075011        -0.496536         0.191628
 C         1.397706        -0.193584         0.050806
 C         2.625229        -0.486667         0.989001
 C         3.120527         0.741587         0.279741
 C         4.568377         1.281382         0.122383
 O         4.872246         0.239710        -0.889211
 C         3.376511         0.309262        -1.173852
 C         2.071374        -0.614782        -1.249257
 O         1.824389         1.327305         0.205767
 H        -0.546054         0.013165         0.995416
 H        -0.662590        -0.357275        -0.728260
 H        -0.146505        -1.588544         0.416540
 H         2.442600        -0.414742         2.077927
 H         3.173765        -1.409122         0.763268
 H         4.568214         2.194773        -0.487893
 H         5.233891         1.374428         0.898907
 H         3.224574         1.099606        -1.819434
 H         1.602343        -0.285224        -2.223991
 H         2.281506        -1.703147        -1.303782
