19
Iteration:  2894charge 0 multiplicity 1
 C         0.028080        -0.492247         0.224356
 C         1.389915        -0.201685         0.053993
 C         2.604607        -0.308444         1.006536
 C         3.134923         0.857877         0.192287
 C         4.647351         1.206772         0.145212
 O         4.748466         0.066500        -0.846896
 C         3.311385         0.406187        -1.193304
 C         2.245866        -0.660934        -1.217450
 O         1.654422         1.260869         0.116152
 H        -0.445076         0.273995         0.892402
 H        -0.431848        -0.258938        -0.750147
 H        -0.133196        -1.450837         0.634794
 H         2.355589        -0.151454         2.092378
 H         3.139904        -1.211255         0.993102
 H         4.971658         2.192158        -0.385994
 H         5.256922         1.112859         1.006303
 H         3.397557         1.300314        -1.901794
 H         1.798036        -0.538499        -2.223292
 H         2.619259        -1.720400        -1.032307
