19
Iteration:  2078charge 0 multiplicity 1
 C         0.024795        -0.606661         0.223265
 C         1.478617        -0.081532         0.049328
 C         2.505993        -0.392117         1.102753
 C         3.162004         0.783875         0.191282
 C         4.558361         1.242818         0.084153
 O         4.868640         0.098821        -0.842627
 C         3.372777         0.266667        -1.101974
 C         2.101960        -0.553823        -1.335548
 O         1.737908         1.369929         0.112047
 H        -0.126839        -0.365848         1.237604
 H        -0.710322        -0.095596        -0.476893
 H         0.063995        -1.626904         0.092455
 H         2.363910         0.000835         2.097888
 H         2.836232        -1.401812         1.056236
 H         4.578749         2.231339        -0.337322
 H         5.307217         1.107100         0.933019
 H         3.181364         1.230129        -1.735005
 H         1.445885        -0.290596        -2.222103
 H         2.234048        -1.717754        -1.342449
