19
Iteration:   871charge 0 multiplicity 1
 C         0.123965        -0.548606         0.258783
 C         1.523180        -0.183533         0.055537
 C         2.714450        -0.378600         0.932755
 C         3.038183         0.957414         0.198662
 C         4.574994         1.206616         0.131969
 O         4.658541         0.061973        -0.747190
 C         3.328939         0.356041        -1.216301
 C         2.158164        -0.593619        -1.292111
 O         1.671259         1.304681         0.165637
 H        -0.453948        -0.203243         1.025739
 H        -0.326927        -0.060965        -0.699581
 H         0.052298        -1.670713        -0.077603
 H         2.599680        -0.094165         2.022481
 H         3.329434        -1.306704         0.857691
 H         4.907534         2.169086        -0.284285
 H         4.998516         0.920940         1.194361
 H         3.547171         1.094153        -2.010469
 H         1.447818        -0.319829        -2.122237
 H         2.398772        -1.701768        -1.252738
