19
Iteration:  1002
 C         0.073223        -0.541848         0.188975
 C         1.489841        -0.170344        -0.016730
 C         2.499238        -0.477022         1.039458
 C         3.171312         0.809126         0.264679
 C         4.679117         1.327172         0.108550
 O         4.822982         0.184499        -0.853974
 C         3.299494         0.289864        -1.111094
 C         2.080242        -0.631506        -1.347307
 O         1.711527         1.350871         0.199233
 H        -0.183572        -0.135948         1.068458
 H        -0.588218        -0.275130        -0.646901
 H         0.012395        -1.639629         0.404082
 H         2.007772        -0.172673         2.041072
 H         2.867107        -1.548477         1.198854
 H         4.764622         2.288466        -0.289101
 H         5.495625         1.147646         0.974347
 H         3.391361         1.018518        -1.881600
 H         1.426015        -0.268537        -2.227126
 H         2.076528        -1.759945        -1.509024
