19
Iteration:  4243charge 0 multiplicity 1
 C        -0.029641        -0.521693         0.238573
 C         1.535281        -0.224984         0.106034
 C         2.646256        -0.312850         1.026464
 C         3.089377         0.848512         0.139366
 C         4.599737         1.233482         0.135692
 O         4.722414         0.061062        -0.746949
 C         3.325732         0.379808        -1.225302
 C         2.239401        -0.615657        -1.308614
 O         1.697579         1.268433         0.095882
 H        -0.212228         0.197607         1.066050
 H        -0.701525        -0.138091        -0.596269
 H        -0.286321        -1.594851         0.441556
 H         2.413908         0.127467         1.952734
 H         3.268832        -1.231305         1.077800
 H         4.929670         2.203482        -0.338423
 H         5.170093         1.192453         1.045623
 H         3.374761         1.108663        -2.086096
 H         1.445859        -0.413792        -2.106978
 H         2.329736        -1.688292        -1.210638
