19
Iteration:  1652charge 0 multiplicity 1
 C         0.047208        -0.487837         0.257864
 C         1.504959        -0.252994         0.040669
 C         2.630025        -0.352615         1.018464
 C         3.108370         0.813219         0.153553
 C         4.640611         1.134838         0.223497
 O         4.676278         0.190147        -0.822286
 C         3.308844         0.408842        -1.232270
 C         2.226651        -0.658828        -1.340893
 O         1.700285         1.342583         0.139091
 H        -0.326096         0.146173         1.064166
 H        -0.635147        -0.277625        -0.652342
 H        -0.212306        -1.523979         0.485477
 H         2.296936         0.017968         2.003635
 H         3.128412        -1.353299         1.085164
 H         4.954578         2.144336         0.020334
 H         5.186291         0.647036         1.147115
 H         3.114242         1.121164        -2.016676
 H         1.626470        -0.530022        -2.127639
 H         2.567577        -1.685801        -1.357208
