19
Iteration:  2114
 C         0.002730        -0.542395         0.272652
 C         1.416743        -0.202015         0.012178
 C         2.730107        -0.337445         0.921359
 C         3.094446         0.910486         0.136569
 C         4.603526         1.205802         0.201999
 O         4.761345         0.096062        -0.788129
 C         3.371059         0.274412        -1.185531
 C         2.157878        -0.637351        -1.309334
 O         1.688869         1.383101         0.146870
 H        -0.202112        -0.373317         1.411948
 H        -0.728605         0.086601        -0.142008
 H        -0.375318        -1.579370         0.108889
 H         2.461412        -0.166190         1.981368
 H         3.054223        -1.420616         0.813616
 H         4.944986         2.134947        -0.246647
 H         5.036156         1.049529         1.305257
 H         3.456631         1.130809        -1.972884
 H         1.573007        -0.402918        -2.196303
 H         2.386063        -1.700050        -1.230927
