19
Iteration:  3614
 C        -0.102617        -0.530792         0.300671
 C         1.360811        -0.195069         0.050271
 C         2.586379        -0.339752         1.055516
 C         3.119274         0.841342         0.192045
 C         4.640753         1.250830         0.136642
 O         4.882300         0.231404        -0.823613
 C         3.436944         0.239042        -1.217852
 C         2.150167        -0.668972        -1.283264
 O         1.756874         1.302426         0.052118
 H        -0.621651        -0.110945         1.098504
 H        -0.724539        -0.222429        -0.528572
 H         0.045442        -1.628802         0.376639
 H         2.274238         0.019821         1.994742
 H         2.969908        -1.446626         1.187288
 H         4.867580         2.215506        -0.086133
 H         5.193949         1.008251         1.122971
 H         3.349823         0.988451        -2.092562
 H         1.335141        -0.292427        -2.036704
 H         2.118965        -1.747013        -1.330766
