19
Iteration:  3355charge 0 multiplicity 1
 C        -0.048094        -0.534732         0.311726
 C         1.415753        -0.199136         0.037577
 C         2.611052        -0.283381         1.026210
 C         3.177607         0.813706         0.078277
 C         4.637291         1.212405         0.243114
 O         4.893625         0.160107        -0.769223
 C         3.351188         0.271814        -1.257624
 C         2.085617        -0.661947        -1.312100
 O         1.689475         1.319332         0.064161
 H        -0.264766        -0.236080         1.340048
 H        -0.745261         0.074114        -0.331480
 H        -0.260851        -1.650382         0.290349
 H         2.196184         0.212573         1.903335
 H         3.234549        -1.250092         1.170894
 H         5.012475         2.134472        -0.221171
 H         4.995667         1.218102         1.215511
 H         3.341624         1.012535        -2.023359
 H         1.399135        -0.405288        -2.127319
 H         2.328970        -1.726164        -1.292705
