19
Iteration:   751
 C         0.020607        -0.591646         0.215139
 C         1.442935        -0.213214         0.015599
 C         2.734043        -0.350901         0.959879
 C         3.143892         0.890559         0.199958
 C         4.605695         1.223351         0.104062
 O         4.716044         0.098333        -0.724254
 C         3.262274         0.374994        -1.162397
 C         2.134151        -0.586206        -1.292757
 O         1.699793         1.335196         0.159634
 H        -0.293911        -0.316441         1.211162
 H        -0.673632        -0.049908        -0.543827
 H        -0.139721        -1.756286         0.120773
 H         2.577845        -0.207783         2.032591
 H         3.357189        -1.263511         0.882361
 H         4.934889         2.170660        -0.485433
 H         5.416532         0.984298         0.955023
 H         3.411922         1.162516        -1.973948
 H         1.574121        -0.443285        -2.231676
 H         2.378842        -1.695455        -1.227213
