19
Iteration:   446charge 0 multiplicity 1
 C        -0.042233        -0.515026         0.315879
 C         1.435620        -0.210731         0.021264
 C         2.551494        -0.407176         1.100525
 C         3.150058         0.783922         0.267635
 C         4.654765         1.101978         0.224355
 O         4.801631         0.283443        -1.000586
 C         3.327157         0.443552        -1.262532
 C         2.200359        -0.660057        -1.263128
 O         1.714094         1.329956         0.077572
 H        -0.445265        -0.150193         1.250449
 H        -0.544232        -0.115150        -0.537487
 H        -0.069513        -1.644118         0.178763
 H         2.190057        -0.273076         2.156919
 H         3.233520        -1.267437         0.989535
 H         4.835512         2.145212         0.035413
 H         5.355002         0.670097         0.988174
 H         3.164557         1.321608        -1.744988
 H         1.468267        -0.676685        -2.151967
 H         2.561562        -1.772561        -1.079663
