19
Iteration:  3296charge 0 multiplicity 1
 C        -0.035482        -0.507644         0.269354
 C         1.473685        -0.139607         0.087009
 C         2.611132        -0.306333         0.995633
 C         3.109767         0.899426         0.118922
 C         4.700499         1.251657         0.138909
 O         4.691084         0.101967        -0.724528
 C         3.392719         0.289031        -1.252138
 C         2.189555        -0.715457        -1.333583
 O         1.684723         1.309785         0.143389
 H        -0.420558        -0.171237         1.291003
 H        -0.734744        -0.183914        -0.522633
 H        -0.131860        -1.598230         0.195515
 H         2.327478        -0.122777         2.053038
 H         3.228982        -1.177170         0.985025
 H         5.036614         2.006265        -0.488538
 H         5.168976         1.109417         1.192147
 H         3.472998         1.126754        -1.960387
 H         1.578974        -0.588176        -2.236693
 H         2.481538        -1.758070        -1.323208
