19
Iteration:  3843charge 0 multiplicity 1
 C         0.059006        -0.575533         0.429414
 C         1.424375        -0.200869        -0.002258
 C         2.606787        -0.319722         1.058513
 C         3.082490         0.840789         0.168600
 C         4.608119         1.197878         0.199981
 O         4.739617         0.106148        -0.753876
 C         3.365941         0.366205        -1.274703
 C         2.212039        -0.606991        -1.363161
 O         1.683227         1.322409        -0.015331
 H        -0.232745        -0.198941         1.407581
 H        -0.625056         0.063518        -0.231327
 H        -0.128189        -1.613960         0.094712
 H         2.412144         0.104075         1.981498
 H         3.322826        -1.176531         0.971459
 H         5.202101         2.082179        -0.099607
 H         5.079422         0.774056         1.210413
 H         3.356188         1.114415        -2.057986
 H         1.548431        -0.253468        -2.182012
 H         2.317067        -1.693275        -1.215416
