19
Iteration:   666
 C         0.040713        -0.396139         0.315793
 C         1.499202        -0.239384         0.001782
 C         2.695341        -0.389986         0.984197
 C         3.050104         0.830613         0.182870
 C         4.542739         1.154534         0.258667
 O         4.718161         0.174877        -0.821649
 C         3.331948         0.420840        -1.317058
 C         2.202677        -0.660146        -1.373480
 O         1.681517         1.258637         0.232654
 H        -0.162551         0.165059         1.108197
 H        -0.681371        -0.151040        -0.529241
 H        -0.009443        -1.532841         0.608065
 H         2.389064        -0.088655         1.994756
 H         3.415515        -1.205753         0.882185
 H         4.912061         2.004569        -0.300985
 H         5.123907         0.949404         1.121864
 H         3.292572         1.172027        -2.198171
 H         1.648919        -0.686177        -2.384974
 H         2.643975        -1.724523        -1.333308
