19
Iteration:  2505charge 0 multiplicity 1
 C         0.076153        -0.515273         0.291466
 C         1.418953        -0.129693         0.044012
 C         2.632637        -0.448232         0.954022
 C         3.075312         0.864440         0.187128
 C         4.703433         1.154217         0.201241
 O         4.798462         0.148686        -0.798281
 C         3.320413         0.424313        -1.196226
 C         2.130441        -0.708906        -1.295186
 O         1.646696         1.413259         0.069153
 H        -0.352607         0.065576         1.215558
 H        -0.669964        -0.357293        -0.515120
 H         0.006651        -1.598199         0.393058
 H         2.550713        -0.250597         2.032436
 H         3.055885        -1.436025         0.831163
 H         5.009081         2.178227        -0.077498
 H         5.048963         0.782675         1.170439
 H         3.300201         0.949098        -2.158023
 H         1.364209        -0.798744        -2.082142
 H         2.601727        -1.724362        -1.210122
