19
Iteration:  3797
 C        -0.001111        -0.545281         0.290768
 C         1.467861        -0.130206         0.100116
 C         2.559447        -0.386907         1.073291
 C         3.112235         0.870044         0.103566
 C         4.562396         1.258801         0.148784
 O         4.792799         0.142629        -0.798166
 C         3.413114         0.264450        -1.250856
 C         2.132180        -0.684853        -1.340766
 O         1.788732         1.340395         0.146846
 H        -0.497538        -0.077589         1.117503
 H        -0.718566        -0.178460        -0.535915
 H         0.064344        -1.677023         0.268198
 H         2.213498         0.037525         1.983741
 H         2.817756        -1.463791         1.003990
 H         4.669221         2.284934        -0.306665
 H         5.192958         1.201717         1.095638
 H         3.327212         1.006538        -2.038212
 H         1.478670        -0.496229        -2.289102
 H         2.527915        -1.636292        -1.201017
