19
Iteration:  2439
 C        -0.035533        -0.513666         0.242643
 C         1.448644        -0.134952         0.000193
 C         2.697602        -0.404348         0.934782
 C         3.084841         0.933970         0.161369
 C         4.631613         1.291643         0.152642
 O         4.797496         0.078895        -0.797893
 C         3.329937         0.240569        -1.122954
 C         2.126623        -0.663411        -1.282401
 O         1.716287         1.340255         0.174366
 H        -0.245499        -0.503114         1.427094
 H        -0.876863         0.013256        -0.388258
 H        -0.172891        -1.533851        -0.186060
 H         2.511334        -0.157436         1.998388
 H         3.344778        -1.299029         0.838741
 H         4.884025         2.207206        -0.440090
 H         5.211028         1.152362         1.057681
 H         3.270565         1.070303        -1.917354
 H         1.596975        -0.397544        -2.219734
 H         2.179305        -1.773273        -1.053100
