19
Iteration:  3366charge 0 multiplicity 1
 C        -0.002723        -0.474499         0.283581
 C         1.423581        -0.194447         0.033849
 C         2.646996        -0.263739         0.994684
 C         3.035435         0.867331         0.176173
 C         4.592127         1.181362         0.170823
 O         4.888474         0.117559        -0.788289
 C         3.423702         0.338074        -1.223637
 C         2.100250        -0.693220        -1.248619
 O         1.659155         1.295053         0.074394
 H        -0.267944        -0.033414         1.238238
 H        -0.601900         0.020898        -0.553668
 H        -0.172013        -1.610068         0.225565
 H         2.530333        -0.099667         2.043132
 H         3.347332        -1.212324         0.980742
 H         4.663485         2.233612        -0.123713
 H         5.119787         0.835321         1.005437
 H         3.487470         0.959199        -2.078890
 H         1.510939        -0.577545        -2.167402
 H         2.314916        -1.765130        -1.216208
