19
Iteration:  3068
 C        -0.015635        -0.523217         0.244972
 C         1.439884        -0.202409        -0.004913
 C         2.567030        -0.414080         1.006483
 C         3.146852         0.844768         0.262753
 C         4.585622         1.262268         0.189119
 O         4.719480         0.136865        -0.842252
 C         3.319800         0.319859        -1.186897
 C         2.178351        -0.708293        -1.262627
 O         1.818333         1.406711         0.077525
 H        -0.180867         0.243171         1.035687
 H        -0.653301        -0.498199        -0.596404
 H        -0.162271        -1.486334         0.594764
 H         2.312394        -0.066857         2.065363
 H         3.155780        -1.353023         0.934068
 H         4.838081         2.160219        -0.322752
 H         5.256597         1.027794         0.946822
 H         3.233437         1.195898        -1.785702
 H         1.750851        -0.630776        -2.225559
 H         2.507300        -1.751531        -1.225394
