19
Iteration:  1541
 C        -0.053230        -0.504063         0.250274
 C         1.426240        -0.201372         0.042725
 C         2.684233        -0.365374         0.959414
 C         3.149346         0.864502         0.093180
 C         4.602197         1.116149         0.256461
 O         4.760028         0.169513        -0.849440
 C         3.281003         0.393219        -1.235581
 C         2.251739        -0.687847        -1.298348
 O         1.657731         1.336350         0.203694
 H        -0.264823        -0.025414         1.304121
 H        -0.583274        -0.036794        -0.549970
 H        -0.350223        -1.603454         0.216613
 H         2.477531         0.021424         1.984584
 H         3.259309        -1.308117         0.896354
 H         5.018451         2.125885         0.020066
 H         5.200918         0.929220         1.215325
 H         3.303673         1.227033        -2.033988
 H         1.820592        -0.624842        -2.250080
 H         2.656066        -1.698725        -1.116779
