19
Iteration:   904charge 0 multiplicity 1
 C        -0.070065        -0.682011         0.363026
 C         1.348216        -0.155024        -0.021429
 C         2.560790        -0.408916         0.981196
 C         3.182385         0.817479         0.195469
 C         4.649791         1.259910         0.127676
 O         4.855214         0.151748        -0.755309
 C         3.386192         0.348229        -1.219197
 C         2.092327        -0.535334        -1.347083
 O         1.772073         1.349111         0.109288
 H        -0.278885        -0.565853         1.372437
 H        -0.804424        -0.162789        -0.346862
 H        -0.135767        -1.865411         0.203205
 H         2.222366         0.140530         1.928295
 H         3.035124        -1.417129         1.166288
 H         4.816733         2.270218        -0.201164
 H         5.305573         1.206105         1.101819
 H         3.474497         1.197745        -1.939479
 H         1.492605        -0.415329        -2.313183
 H         2.371065        -1.649404        -1.418172
