19
Iteration:   180charge 0 multiplicity 1
 C        -0.000772        -0.584786         0.240194
 C         1.471217        -0.173650         0.033578
 C         2.683634        -0.328515         0.977561
 C         3.103359         0.939451         0.183158
 C         4.693762         1.172587         0.175764
 O         4.776596         0.067739        -0.864216
 C         3.316230         0.401122        -1.246363
 C         2.210642        -0.647171        -1.262215
 O         1.548389         1.362213         0.201757
 H        -0.209306        -0.288246         1.234257
 H        -0.688793         0.020208        -0.442768
 H        -0.237741        -1.620553         0.184440
 H         2.419995        -0.155225         2.018614
 H         3.200494        -1.296597         0.940586
 H         5.196557         2.145487         0.000886
 H         5.134582         0.712111         1.094933
 H         3.263777         1.079410        -2.114603
 H         1.644118        -0.610054        -2.262497
 H         2.660089        -1.727480        -1.102110
