19
Iteration:  2334
 C         0.068715        -0.500984         0.243902
 C         1.478493        -0.262739         0.011537
 C         2.647349        -0.324477         0.980688
 C         3.107827         0.862000         0.162020
 C         4.584385         1.163779         0.168770
 O         4.689984         0.098606        -0.816512
 C         3.281755         0.333147        -1.199920
 C         2.187084        -0.706477        -1.344334
 O         1.752266         1.450477         0.225065
 H        -0.440869        -0.062849         1.013537
 H        -0.482086        -0.289921        -0.589453
 H        -0.175894        -1.556944         0.520943
 H         2.408315         0.077195         1.982301
 H         3.301604        -1.202770         1.060378
 H         4.832785         2.153678        -0.174035
 H         5.069679         1.006348         1.211923
 H         3.345833         1.072235        -2.072245
 H         1.517962        -0.569405        -2.233321
 H         2.604350        -1.700080        -1.353949
