19
Iteration:  1083charge 0 multiplicity 1
 C        -0.040389        -0.618311         0.333952
 C         1.431318        -0.133782         0.062184
 C         2.638362        -0.370326         1.015900
 C         3.124908         0.753483         0.142449
 C         4.590350         1.276760         0.233805
 O         4.748610         0.120456        -0.775172
 C         3.401013         0.358285        -1.210315
 C         2.172903        -0.556634        -1.428178
 O         1.719698         1.296723         0.109796
 H        -0.444781        -0.278445         1.441833
 H        -0.561434         0.043139        -0.366597
 H        -0.138233        -1.624732        -0.003062
 H         2.363308        -0.115799         2.005891
 H         3.248253        -1.256576         0.862750
 H         4.899114         2.181143        -0.342613
 H         5.129643         1.059802         1.111607
 H         3.308413         1.231065        -1.989956
 H         1.616753        -0.371643        -2.381668
 H         2.589615        -1.577235        -1.313534
