19
Iteration:  1705charge 0 multiplicity 1
 C         0.047859        -0.515283         0.202423
 C         1.474713        -0.140179         0.056559
 C         2.534890        -0.427421         1.073761
 C         3.131407         0.789348         0.213518
 C         4.555908         1.279958         0.143558
 O         4.822986         0.159777        -0.821935
 C         3.312487         0.321717        -1.183306
 C         2.095540        -0.645329        -1.362401
 O         1.835297         1.333665         0.152136
 H        -0.524768        -0.218074         1.141196
 H        -0.612329        -0.218350        -0.710757
 H        -0.005598        -1.681834         0.194770
 H         2.308605        -0.053953         2.070086
 H         2.938999        -1.453013         1.051698
 H         4.823647         2.286889        -0.282170
 H         5.179452         1.226135         1.081085
 H         3.146170         1.043821        -2.013828
 H         1.370361        -0.561078        -2.166907
 H         2.344605        -1.734331        -1.202567
