19
Iteration:  2961charge 0 multiplicity 1
 C        -0.104064        -0.545356         0.379000
 C         1.447256        -0.173196        -0.035493
 C         2.574921        -0.331743         1.072284
 C         3.154146         0.819249         0.190732
 C         4.660065         1.221637         0.145277
 O         4.847215         0.141447        -0.730879
 C         3.347360         0.323391        -1.202831
 C         2.141821        -0.657068        -1.402283
 O         1.718711         1.312575         0.020991
 H        -0.264397        -0.409542         1.482544
 H        -0.798948         0.073524        -0.189013
 H        -0.078036        -1.598117         0.252559
 H         2.416549         0.036810         2.095585
 H         3.130696        -1.246022         1.035875
 H         4.934345         2.322268        -0.249454
 H         5.162631         1.076687         1.037776
 H         3.225729         1.133658        -2.035359
 H         1.612439        -0.296755        -2.337484
 H         2.275505        -1.760288        -1.324756
