19
Iteration:  1073charge 0 multiplicity 1
 C         0.029162        -0.554702         0.300363
 C         1.450389        -0.208597        -0.023731
 C         2.690250        -0.360286         0.954297
 C         3.100714         0.900434         0.181747
 C         4.575467         1.220394         0.298114
 O         4.792461         0.096878        -0.798718
 C         3.320610         0.336782        -1.239802
 C         2.181796        -0.635781        -1.398775
 O         1.638105         1.340924         0.163868
 H        -0.176261        -0.387787         1.480655
 H        -0.651180         0.119315        -0.294470
 H        -0.281867        -1.575495         0.142017
 H         2.514307        -0.070777         1.959385
 H         3.348101        -1.206915         0.975426
 H         4.930216         2.175143        -0.172329
 H         5.095574         1.030437         1.155534
 H         3.437794         1.169526        -2.022019
 H         1.689753        -0.441439        -2.346290
 H         2.346764        -1.714823        -1.413324
