19
Iteration:  3719
 C         0.032734        -0.532406         0.318701
 C         1.405420        -0.119863        -0.010591
 C         2.494261        -0.324959         1.069820
 C         3.136170         0.771511         0.201075
 C         4.572174         1.206484         0.202814
 O         4.809621         0.178092        -0.883500
 C         3.349783         0.300838        -1.189389
 C         2.142571        -0.740016        -1.326442
 O         1.824262         1.390283         0.072769
 H        -0.164679        -0.368077         1.369461
 H        -0.628302        -0.381518        -0.507021
 H         0.057285        -1.638994         0.251900
 H         2.165512         0.088375         2.079094
 H         3.188388        -1.097292         1.246591
 H         4.703192         2.273137        -0.204824
 H         4.992578         1.022934         1.161918
 H         3.234708         1.070876        -1.935013
 H         1.633151        -0.546494        -2.284289
 H         2.409274        -1.769992        -1.230440
