19
Iteration:   527
 C         0.078899        -0.609832         0.357384
 C         1.419517        -0.184215        -0.010123
 C         2.558699        -0.386463         0.957807
 C         3.112590         0.802514         0.288518
 C         4.537362         1.270835         0.157182
 O         4.922718         0.122248        -0.778652
 C         3.338882         0.248866        -1.195034
 C         2.032631        -0.503685        -1.510501
 O         1.777474         1.325694         0.189368
 H        -0.191610        -0.341135         1.415242
 H        -0.736964        -0.215768        -0.311420
 H         0.049235        -1.710053         0.325786
 H         2.188570         0.027901         1.900353
 H         3.093047        -1.342428         1.029767
 H         4.624272         2.326088        -0.357120
 H         5.205420         1.262023         0.991041
 H         3.433793         1.145914        -1.867672
 H         1.461599         0.005796        -2.268750
 H         2.060994        -1.504439        -1.794423
