19
Iteration:  4369
 C        -0.052301        -0.640967         0.268638
 C         1.450416        -0.082816         0.001712
 C         2.654636        -0.311795         0.954667
 C         3.064747         0.888324         0.150953
 C         4.531382         1.320087         0.197288
 O         4.756717        -0.000216        -0.761035
 C         3.443524         0.263238        -1.232485
 C         2.126187        -0.667296        -1.271953
 O         1.792743         1.403322         0.157123
 H        -0.241272        -0.494744         1.295437
 H        -0.644380        -0.127132        -0.501417
 H        -0.082636        -1.750283         0.154756
 H         2.310272         0.133132         1.953844
 H         3.210487        -1.276116         1.141562
 H         4.787332         2.031993        -0.653369
 H         5.286077         1.332060         1.109076
 H         3.357661         1.120626        -1.927854
 H         1.664527        -0.389873        -2.300355
 H         2.264541        -1.772186        -1.257734
