19
Iteration:  2135charge 0 multiplicity 1
 C         0.094353        -0.437077         0.340128
 C         1.484905        -0.192871         0.049075
 C         2.671429        -0.361296         0.961719
 C         3.102359         0.899902         0.133240
 C         4.613825         1.163222         0.252785
 O         4.734474         0.104441        -0.755304
 C         3.316933         0.391422        -1.252233
 C         2.157623        -0.663193        -1.340871
 O         1.623017         1.250084         0.052868
 H        -0.347635        -0.046071         1.334540
 H        -0.540265         0.132215        -0.318724
 H        -0.158688        -1.482728         0.130103
 H         2.539350        -0.182752         2.040755
 H         3.479161        -1.161530         0.779120
 H         4.821142         2.171888        -0.019279
 H         5.262293         0.622856         1.127052
 H         3.368246         1.337196        -2.015423
 H         1.416518        -0.434762        -2.140106
 H         2.464328        -1.751055        -1.234190
