19
Iteration:   722charge 0 multiplicity 1
 C         0.100127        -0.746896         0.304270
 C         1.395463        -0.140506         0.022795
 C         2.530791        -0.291008         1.029547
 C         3.160213         0.802481         0.165099
 C         4.549763         1.225408         0.191283
 O         4.871033         0.077820        -0.850600
 C         3.327409         0.269264        -1.199316
 C         2.061519        -0.493587        -1.363060
 O         1.762107         1.440420         0.167141
 H        -0.166735        -0.673234         1.314585
 H        -0.636650        -0.216501        -0.316147
 H         0.113191        -1.858981         0.059847
 H         2.214502         0.159188         1.992985
 H         2.946475        -1.285419         1.180256
 H         4.838501         2.155726        -0.312209
 H         5.144940         1.081469         1.015866
 H         3.400733         1.074232        -1.996831
 H         1.600284        -0.171554        -2.350863
 H         2.240910        -1.573635        -1.285597
