19
Iteration:  1312
 C        -0.032456        -0.540470         0.287762
 C         1.370295        -0.134803         0.010613
 C         2.510976        -0.392825         1.005743
 C         3.194629         0.729163         0.222917
 C         4.626894         1.248116         0.188007
 O         4.841963         0.234602        -0.895501
 C         3.358532         0.339316        -1.225244
 C         2.147759        -0.662596        -1.314215
 O         1.797145         1.320369         0.161143
 H        -0.623798        -0.071962         1.149373
 H        -0.609968        -0.434461        -0.599141
 H        -0.115471        -1.609163         0.505546
 H         2.177583         0.033450         2.006981
 H         2.928429        -1.448591         1.132207
 H         4.570944         2.218712        -0.012803
 H         5.370462         1.071873         1.053807
 H         3.238693         1.136528        -1.868611
 H         1.519456        -0.596810        -2.258932
 H         2.533308        -1.723555        -1.296058
