19
Iteration:  4199charge 0 multiplicity 1
 C         0.022434        -0.672398         0.419091
 C         1.374920        -0.125610        -0.062961
 C         2.553409        -0.322938         1.008840
 C         3.111316         0.840338         0.121440
 C         4.573109         1.164256         0.181277
 O         4.798039         0.164310        -0.769864
 C         3.439845         0.318990        -1.193510
 C         2.091477        -0.647953        -1.253844
 O         1.813158         1.427277         0.010682
 H        -0.258213        -0.418938         1.446799
 H        -0.771206        -0.255903        -0.287812
 H         0.027740        -1.769925         0.109255
 H         2.359626         0.042468         1.981900
 H         2.870824        -1.392103         1.111280
 H         4.861091         2.229685        -0.132611
 H         5.110638         0.981938         1.096544
 H         3.275321         1.027355        -2.043260
 H         1.599964        -0.439362        -2.288979
 H         2.477453        -1.638465        -1.319956
