19
Iteration:  3271charge 0 multiplicity 1
 C         0.024452        -0.502214         0.173839
 C         1.494975        -0.216378         0.139470
 C         2.689519        -0.282606         1.039980
 C         3.109889         0.832757         0.144689
 C         4.563134         1.216733         0.199878
 O         4.806445         0.099781        -0.838896
 C         3.359891         0.272833        -1.198518
 C         2.047511        -0.640118        -1.267723
 O         1.703167         1.331892         0.091874
 H        -0.359962         0.097268         0.935180
 H        -0.487960        -0.193003        -0.702463
 H        -0.259151        -1.532046         0.401208
 H         2.359622        -0.055598         2.016207
 H         3.339874        -1.061640         1.118458
 H         4.757620         2.177986        -0.295031
 H         4.979289         1.066248         1.148172
 H         3.487530         1.142853        -1.910593
 H         1.441096        -0.516846        -2.102907
 H         2.443718        -1.725338        -1.262544
