19
Iteration:  3812
 C         0.028586        -0.567260         0.355818
 C         1.363340        -0.075830        -0.081383
 C         2.528189        -0.361206         0.969033
 C         3.141534         0.768486         0.236389
 C         4.643069         1.268896         0.140840
 O         4.836451         0.153482        -0.781022
 C         3.325238         0.291232        -1.192684
 C         2.149383        -0.678416        -1.315349
 O         1.733913         1.377290         0.092342
 H        -0.059724        -0.355297         1.426280
 H        -0.735079        -0.323376        -0.361554
 H        -0.007142        -1.651521         0.326567
 H         2.308938        -0.047522         1.991657
 H         3.174524        -1.248746         1.067250
 H         4.899958         2.198025        -0.370087
 H         5.262177         1.064619         1.086264
 H         3.357482         1.056634        -1.982616
 H         1.674153        -0.642549        -2.290425
 H         2.173233        -1.805100        -1.056295
