19
Iteration:  3345charge 0 multiplicity 1
 C        -0.024552        -0.558731         0.397162
 C         1.468038        -0.146335         0.021760
 C         2.533535        -0.330154         1.045458
 C         3.162038         0.848162         0.126705
 C         4.636668         1.295514         0.243993
 O         4.843909         0.140633        -0.761821
 C         3.318083         0.224174        -1.250139
 C         2.098265        -0.650197        -1.372916
 O         1.748598         1.329543         0.018618
 H        -0.323944        -0.414473         1.400634
 H        -0.731268        -0.102451        -0.326033
 H        -0.249942        -1.626642         0.032874
 H         2.485929         0.271370         1.968018
 H         2.991452        -1.376855         1.327292
 H         4.993262         2.269046        -0.190580
 H         5.088828         0.937184         1.061457
 H         3.413174         0.949935        -2.027237
 H         1.670772        -0.358211        -2.322940
 H         2.207021        -1.777195        -1.404958
