19
Iteration:  1598
 C        -0.004980        -0.646230         0.307743
 C         1.403280        -0.147551         0.007734
 C         2.517051        -0.375046         1.037958
 C         3.097113         0.812032         0.179409
 C         4.627163         1.313400         0.133986
 O         4.836343         0.086308        -0.752502
 C         3.446213         0.317091        -1.206166
 C         2.050848        -0.547846        -1.387225
 O         1.810039         1.353376         0.140850
 H        -0.188211        -0.689820         1.333178
 H        -0.826335        -0.105454        -0.181781
 H         0.075465        -1.604399        -0.003133
 H         2.108819        -0.157409         2.037152
 H         3.071105        -1.349572         1.051911
 H         4.607887         2.128049        -0.456691
 H         5.385286         1.218944         1.002816
 H         3.489638         1.054848        -1.965844
 H         1.570160        -0.124677        -2.211838
 H         2.056273        -1.632161        -1.523997
