19
Iteration:  2104charge 0 multiplicity 1
 C        -0.052602        -0.586076         0.298257
 C         1.448794        -0.159024        -0.014299
 C         2.560994        -0.332861         0.940898
 C         3.138027         0.834975         0.129626
 C         4.592120         1.247249         0.175217
 O         4.766407         0.103739        -0.741686
 C         3.390658         0.318923        -1.219245
 C         2.127297        -0.650927        -1.317400
 O         1.793896         1.362657         0.182759
 H        -0.166925        -0.465854         1.449451
 H        -0.727007         0.035139        -0.223297
 H        -0.118852        -1.659529        -0.087440
 H         2.443850         0.091149         1.962372
 H         3.302706        -1.222725         0.947643
 H         4.729574         2.257284        -0.262095
 H         5.367711         0.975257         0.979104
 H         3.288023         1.052900        -2.067454
 H         1.551061        -0.405159        -2.191689
 H         2.228855        -1.705498        -1.303891
