19
Iteration:   771
 C         0.066141        -0.423785         0.254574
 C         1.489060        -0.198497         0.083220
 C         2.658216        -0.386865         0.981538
 C         3.084246         0.893048         0.171227
 C         4.604658         1.294761         0.211310
 O         4.796167         0.079596        -0.877454
 C         3.401785         0.385086        -1.259021
 C         2.163853        -0.712363        -1.323480
 O         1.544661         1.242513         0.222622
 H        -0.353509         0.006153         1.188351
 H        -0.425747         0.032210        -0.634261
 H        -0.104775        -1.501432         0.279300
 H         2.403400        -0.250658         2.039699
 H         3.238549        -1.347905         0.915748
 H         4.909603         2.236675        -0.256472
 H         5.255752         1.025312         1.158113
 H         3.396633         1.200948        -1.949628
 H         1.580429        -0.473679        -2.201396
 H         2.352489        -1.818839        -1.319581
