19
Iteration:  2401
 C         0.015486        -0.424681         0.262087
 C         1.451578        -0.277580         0.017383
 C         2.593665        -0.391585         1.025605
 C         3.109511         0.822709         0.149557
 C         4.581990         1.218240         0.193097
 O         4.779438         0.162981        -0.871490
 C         3.333969         0.367388        -1.206977
 C         2.165494        -0.648561        -1.250856
 O         1.754117         1.269997         0.131646
 H        -0.220259        -0.044320         1.178445
 H        -0.505095         0.135557        -0.459597
 H        -0.182671        -1.488746         0.377198
 H         2.216354         0.109032         1.943317
 H         3.109499        -1.353862         1.257355
 H         4.901574         2.163394        -0.274752
 H         5.179474         1.090882         1.146233
 H         3.122262         1.119314        -2.018343
 H         1.644516        -0.527899        -2.201129
 H         2.504965        -1.644516        -1.219840
