19
Iteration:  4150charge 0 multiplicity 1
 C        -0.020430        -0.498215         0.192568
 C         1.421162        -0.260425         0.079460
 C         2.657440        -0.370066         0.968190
 C         3.091812         0.976457         0.229979
 C         4.689720         1.259406         0.117297
 O         4.754731         0.080336        -0.778675
 C         3.345449         0.368263        -1.211430
 C         2.177433        -0.677298        -1.246073
 O         1.673221         1.291798         0.110525
 H        -0.284464         0.047831         1.156334
 H        -0.606698        -0.027827        -0.575420
 H        -0.247219        -1.556370         0.207067
 H         2.445250        -0.287862         2.103562
 H         3.376427        -1.187380         0.917603
 H         4.857963         2.184547        -0.290814
 H         5.374500         1.153761         1.004876
 H         3.123494         1.036762        -2.046032
 H         1.681802        -0.627297        -2.147569
 H         2.404429        -1.786736        -1.024904
