19
Iteration:  2040
 C         0.013737        -0.456144         0.218352
 C         1.418010        -0.205915         0.061856
 C         2.655321        -0.345357         1.000191
 C         3.068967         0.786132         0.160286
 C         4.616574         1.183208         0.209562
 O         4.771096         0.144419        -0.837837
 C         3.288949         0.413309        -1.272150
 C         2.217142        -0.700517        -1.299222
 O         1.696828         1.304090         0.186472
 H        -0.375568         0.329652         0.976031
 H        -0.606648        -0.221360        -0.599507
 H        -0.355505        -1.550652         0.478352
 H         2.824428         0.107956         1.998768
 H         3.347959        -1.253602         0.962403
 H         5.088337         2.183281        -0.062979
 H         4.927604         0.765576         1.125244
 H         3.365336         1.216077        -1.906404
 H         1.614443        -0.732429        -2.187023
 H         2.660235        -1.636898        -1.137534
