19
Iteration:  3492
 C        -0.010970        -0.517752         0.363103
 C         1.423700        -0.145173        -0.032671
 C         2.625443        -0.346497         0.946596
 C         3.143856         0.880109         0.160500
 C         4.619393         1.241035         0.124907
 O         4.777178         0.070849        -0.665475
 C         3.335235         0.316240        -1.212009
 C         2.234130        -0.697055        -1.387522
 O         1.650584         1.345553         0.088380
 H        -0.145673        -0.281433         1.456247
 H        -0.842445        -0.018667        -0.181326
 H        -0.176262        -1.571686         0.227226
 H         2.420085         0.133528         1.964872
 H         3.274405        -1.212932         0.804733
 H         4.907008         2.220522        -0.176587
 H         5.124258         0.981555         1.120995
 H         3.360291         1.117504        -2.048797
 H         1.608888        -0.669178        -2.377599
 H         2.500225        -1.651529        -0.939408
