19
Iteration:   270
 C         0.032319        -0.435612         0.236928
 C         1.516223        -0.290667         0.094629
 C         2.758562        -0.400279         0.917562
 C         3.035437         0.890116         0.168371
 C         4.485879         1.222269         0.171482
 O         4.696115         0.085058        -0.809490
 C         3.284805         0.426866        -1.220858
 C         2.203051        -0.656525        -1.287409
 O         1.747329         1.298647         0.199997
 H        -0.389085         0.159440         1.158500
 H        -0.298456         0.014203        -0.641553
 H        -0.291805        -1.456070         0.255071
 H         2.647054        -0.168936         2.014288
 H         3.326222        -1.373681         0.782969
 H         4.678427         2.118123        -0.380272
 H         5.212826         1.164416         1.125252
 H         3.366903         1.280964        -1.952569
 H         1.524735        -0.715617        -2.216423
 H         2.654592        -1.757164        -1.184368
