19
Iteration:  1713charge 0 multiplicity 1
 C        -0.044047        -0.514888         0.159010
 C         1.480420        -0.219364        -0.009509
 C         2.654976        -0.378232         1.064425
 C         3.121937         0.842089         0.197107
 C         4.555947         1.258091         0.187170
 O         4.797637         0.119700        -0.832023
 C         3.318634         0.319334        -1.221207
 C         2.111441        -0.683536        -1.287528
 O         1.802730         1.370386         0.195123
 H        -0.263975        -0.129756         1.191106
 H        -0.673619        -0.112921        -0.534380
 H        -0.099212        -1.638840         0.208821
 H         2.238503        -0.117980         2.040156
 H         3.160226        -1.344012         1.053154
 H         4.547114         2.299233        -0.303013
 H         5.118082         1.158759         1.043869
 H         3.444753         1.207237        -1.882943
 H         1.452863        -0.371353        -2.249936
 H         2.409579        -1.792375        -1.275307
