19
Iteration:  2079
 C         0.023505        -0.609529         0.223338
 C         1.477469        -0.078454         0.053189
 C         2.510818        -0.391920         1.106962
 C         3.167353         0.788025         0.188135
 C         4.553992         1.244266         0.083409
 O         4.871748         0.098175        -0.837441
 C         3.366983         0.262937        -1.109025
 C         2.099366        -0.553048        -1.348292
 O         1.741154         1.372748         0.112624
 H        -0.131894        -0.342560         1.284435
 H        -0.710869        -0.107539        -0.446699
 H         0.090447        -1.633644         0.045175
 H         2.336570        -0.017585         2.116538
 H         2.806569        -1.450935         1.086829
 H         4.556555         2.213861        -0.361346
 H         5.314027         1.104047         0.980335
 H         3.182170         1.249194        -1.748797
 H         1.440213        -0.313541        -2.225381
 H         2.249430        -1.701257        -1.333919
