19
Iteration:  1079
 C        -0.023806        -0.592621         0.339834
 C         1.440315        -0.159460         0.021091
 C         2.661907        -0.361740         0.991226
 C         3.118012         0.807375         0.152512
 C         4.574961         1.271201         0.267438
 O         4.767499         0.107804        -0.789129
 C         3.359620         0.346978        -1.233467
 C         2.176311        -0.586381        -1.420493
 O         1.678963         1.321277         0.134703
 H        -0.293661        -0.342821         1.284507
 H        -0.520509         0.102165        -0.307034
 H        -0.216410        -1.662087         0.046277
 H         2.433790        -0.089489         2.079289
 H         3.371153        -1.254928         0.907704
 H         4.924547         2.101053        -0.308185
 H         5.218374         0.974597         1.263378
 H         3.370718         1.143744        -1.937159
 H         1.687480        -0.405360        -2.442513
 H         2.514750        -1.654258        -1.358214
