19
Iteration:  1840charge 0 multiplicity 1
 C         0.016351        -0.487693         0.187186
 C         1.505100        -0.348576         0.032408
 C         2.698873        -0.346671         0.976785
 C         3.081646         0.892298         0.191989
 C         4.596445         1.192898         0.187538
 O         4.672888         0.160748        -0.798264
 C         3.314002         0.337025        -1.227368
 C         2.181017        -0.700247        -1.326471
 O         1.710611         1.379809         0.233857
 H        -0.286105         0.363593         0.865472
 H        -0.432569        -0.187472        -0.872600
 H        -0.487758        -1.386650         0.555190
 H         2.466419         0.064380         1.978061
 H         3.412088        -1.184689         1.050048
 H         5.085237         2.056026        -0.237823
 H         5.249224         0.961122         1.140573
 H         3.414135         1.004855        -2.047955
 H         1.579100        -0.625262        -2.126331
 H         2.463759        -1.702617        -1.360667
