19
Iteration:   510
 C        -0.018995        -0.618826         0.294173
 C         1.428567        -0.108102        -0.001094
 C         2.566622        -0.521387         1.020731
 C         3.160003         0.726807         0.192457
 C         4.570279         1.324014         0.082276
 O         4.769142         0.128839        -0.747998
 C         3.440605         0.332818        -1.206659
 C         2.099613        -0.462916        -1.345696
 O         1.802721         1.333817         0.161501
 H        -0.490306        -0.308339         1.337815
 H        -0.770506        -0.495292        -0.448717
 H         0.037238        -1.715348         0.465596
 H         2.359987        -0.293154         2.095010
 H         3.075636        -1.475478         0.829489
 H         4.555337         2.192142        -0.506010
 H         5.371895         1.435969         0.940432
 H         3.358634         1.202397        -1.960452
 H         1.597895         0.087420        -2.187846
 H         2.126306        -1.619762        -1.438967
