19
Iteration:  4746charge 0 multiplicity 1
 C        -0.013203        -0.542201         0.190083
 C         1.472740        -0.214813         0.037980
 C         2.598970        -0.310500         1.061251
 C         3.138103         0.880377         0.164987
 C         4.628548         1.292801         0.154691
 O         4.813601         0.066742        -0.787985
 C         3.354393         0.263011        -1.214477
 C         2.150766        -0.602765        -1.324981
 O         1.687659         1.301983         0.168398
 H        -0.205569        -0.169699         1.230257
 H        -0.698087         0.050320        -0.438467
 H        -0.450157        -1.496303         0.213544
 H         2.306485        -0.258875         2.165638
 H         3.161664        -1.236469         0.979259
 H         4.748276         2.169600        -0.539717
 H         5.250310         1.262513         1.002787
 H         3.331022         1.028638        -1.972326
 H         1.569614        -0.225371        -2.142292
 H         2.332813        -1.736980        -1.244453
