19
Iteration:  3794charge 0 multiplicity 1
 C        -0.004090        -0.522338         0.271542
 C         1.459165        -0.163527         0.113938
 C         2.582288        -0.389383         1.067454
 C         3.079519         0.867132         0.090974
 C         4.546977         1.272657         0.176523
 O         4.814837         0.121756        -0.808096
 C         3.379629         0.267086        -1.268791
 C         2.165949        -0.669377        -1.322586
 O         1.793186         1.342372         0.151924
 H        -0.493053        -0.050913         1.167461
 H        -0.572608        -0.263752        -0.656800
 H        -0.032141        -1.632322         0.234703
 H         2.260970         0.099678         2.105535
 H         2.869424        -1.422615         1.048593
 H         4.670841         2.254109        -0.351366
 H         5.152942         1.191799         0.984549
 H         3.270952         1.078675        -2.043711
 H         1.508669        -0.415064        -2.128969
 H         2.456094        -1.731384        -1.234258
