19
Iteration:  2959charge 0 multiplicity 1
 C        -0.083413        -0.537111         0.366905
 C         1.437874        -0.164881        -0.022657
 C         2.587023        -0.346808         1.091094
 C         3.159310         0.792732         0.198314
 C         4.650890         1.225850         0.145302
 O         4.859393         0.151546        -0.724028
 C         3.339875         0.328867        -1.216950
 C         2.106240        -0.641072        -1.389164
 O         1.719975         1.311524         0.007209
 H        -0.221652        -0.440198         1.457460
 H        -0.791625        -0.026532        -0.270805
 H        -0.088325        -1.570362         0.241055
 H         2.339619         0.106355         2.140445
 H         3.173562        -1.255805         0.960751
 H         4.962257         2.282938        -0.289707
 H         5.196245         1.066273         1.036109
 H         3.178007         1.095525        -2.065963
 H         1.712378        -0.323598        -2.339773
 H         2.225148        -1.753892        -1.302973
