19
Iteration:   343
 C         0.008763        -0.626713         0.384827
 C         1.402571        -0.133324         0.035218
 C         2.564525        -0.340136         0.973390
 C         3.130822         0.837133         0.175514
 C         4.561406         1.180741         0.217092
 O         4.774582         0.132525        -0.874958
 C         3.364167         0.403877        -1.226156
 C         2.138183        -0.600928        -1.367127
 O         1.797731         1.316008         0.116029
 H        -0.289888        -0.379633         1.436967
 H        -0.707680        -0.339207        -0.465965
 H         0.142378        -1.704051         0.372395
 H         2.291698         0.053544         1.941039
 H         3.194414        -1.226905         1.118908
 H         4.927467         2.164719        -0.075900
 H         5.072568         0.870895         1.145341
 H         3.345408         1.330536        -1.865096
 H         1.543236        -0.502834        -2.292086
 H         2.604057        -1.607203        -1.317897
