19
Iteration:    93charge 0 multiplicity 1
 C         0.021868        -0.464685         0.350076
 C         1.434299        -0.228832         0.066917
 C         2.622449        -0.417883         0.946305
 C         3.103437         0.819001         0.142068
 C         4.564216         1.213927         0.287230
 O         4.759501         0.192285        -0.868343
 C         3.371777         0.375866        -1.254222
 C         2.211235        -0.695894        -1.328858
 O         1.703033         1.316149         0.112252
 H        -0.175448         0.076560         1.309844
 H        -0.600482        -0.007611        -0.525517
 H        -0.253478        -1.521869         0.478739
 H         2.459572        -0.072034         1.975265
 H         3.136335        -1.388287         0.897734
 H         4.773688         2.234095        -0.040260
 H         5.176471         0.938357         1.143590
 H         3.254167         1.270526        -1.994451
 H         1.560209        -0.636998        -2.251947
 H         2.642391        -1.763921        -1.240019
