19
Iteration:  4159
 C         0.021388        -0.473592         0.249590
 C         1.474354        -0.239717         0.032736
 C         2.620954        -0.335710         0.985494
 C         3.039813         0.893844         0.195712
 C         4.730732         1.222573         0.123292
 O         4.752901         0.157184        -0.786037
 C         3.353302         0.267527        -1.162763
 C         2.189071        -0.633909        -1.281169
 O         1.607589         1.286953         0.105927
 H        -0.327784        -0.209452         1.249736
 H        -0.558424        -0.047307        -0.524149
 H        -0.165537        -1.512359         0.267636
 H         2.219325        -0.090023         1.995739
 H         3.455715        -1.090039         0.980812
 H         5.049566         2.117610        -0.421054
 H         5.405165         1.028998         1.034331
 H         3.423484         0.996225        -1.927156
 H         1.535397        -0.467863        -2.074013
 H         2.360725        -1.762186        -1.241086
