19
Iteration:  1810
 C         0.023518        -0.581526         0.267630
 C         1.435662        -0.106851         0.048958
 C         2.566964        -0.323857         0.933820
 C         3.142611         0.805651         0.237118
 C         4.596197         1.195446         0.181131
 O         4.790830         0.111364        -0.821458
 C         3.338506         0.362147        -1.173961
 C         2.114100        -0.587848        -1.278626
 O         1.727094         1.289200         0.100313
 H        -0.456393        -0.143951         1.202029
 H        -0.459158        -0.264128        -0.620021
 H         0.152267        -1.703415         0.305414
 H         2.331927         0.055719         1.970600
 H         3.225305        -1.241740         0.976042
 H         4.987656         2.063322        -0.457330
 H         5.170139         1.021668         1.039159
 H         3.517895         1.278075        -1.880713
 H         1.470497        -0.512613        -2.254288
 H         2.485375        -1.638193        -1.160700
