19
Iteration:  3038
 C        -0.026601        -0.545629         0.193590
 C         1.434924        -0.145694         0.088854
 C         2.533132        -0.324380         1.082554
 C         3.103030         0.806999         0.238634
 C         4.564087         1.213322         0.088307
 O         4.920595         0.122395        -0.848614
 C         3.411127         0.266670        -1.194841
 C         2.110607        -0.613765        -1.263558
 O         1.694783         1.334010         0.142725
 H        -0.244173        -0.034042         1.111718
 H        -0.742969        -0.221586        -0.630995
 H         0.039365        -1.674229         0.238102
 H         2.294011        -0.050098         2.103742
 H         3.118594        -1.232860         1.254670
 H         4.806945         2.154533        -0.615106
 H         5.256771         1.108366         0.906874
 H         3.336796         1.160404        -1.988207
 H         1.669287        -0.246314        -2.312402
 H         2.383667        -1.677032        -1.398550
