19
Iteration:  1757
 C         0.025143        -0.520978         0.305552
 C         1.480400        -0.157473        -0.026985
 C         2.631816        -0.386262         0.994784
 C         3.147773         0.776770         0.166267
 C         4.606996         1.214343         0.262348
 O         4.762540         0.112068        -0.751119
 C         3.318059         0.392160        -1.267779
 C         2.132986        -0.606991        -1.297137
 O         1.677426         1.306594         0.057090
 H        -0.066741        -0.442708         1.417016
 H        -0.619639         0.093683        -0.198271
 H        -0.145454        -1.607191         0.023611
 H         2.411836         0.077167         1.964132
 H         3.324420        -1.239776         0.966013
 H         4.926127         2.189869        -0.274442
 H         5.135749         1.004009         1.132736
 H         3.332226         1.227968        -2.089935
 H         1.355847        -0.379481        -2.231797
 H         2.511766        -1.681298        -1.077709
