19
Iteration:  3887
 C        -0.004250        -0.557836         0.198798
 C         1.428198        -0.126062         0.090705
 C         2.658532        -0.421058         0.970916
 C         3.115237         0.905837         0.167239
 C         4.639972         1.250670         0.086209
 O         4.743963         0.130041        -0.767796
 C         3.346563         0.244050        -1.142052
 C         2.163021        -0.673657        -1.255848
 O         1.705870         1.403522         0.130770
 H        -0.269799        -0.203321         1.227439
 H        -0.826138        -0.284470        -0.547628
 H        -0.002859        -1.681444         0.177149
 H         2.376423        -0.312608         1.971769
 H         3.156026        -1.420775         0.800766
 H         4.752666         2.195197        -0.499311
 H         5.346084         1.160828         1.035731
 H         3.355122         1.070181        -1.846889
 H         1.694198        -0.268535        -2.161230
 H         2.378930        -1.768708        -1.180041
