19
Iteration:  4631charge 0 multiplicity 1
 C        -0.005189        -0.461860         0.172695
 C         1.469500        -0.161864         0.071804
 C         2.738743        -0.369071         1.011709
 C         3.090273         0.872678         0.126814
 C         4.637983         1.258197         0.180151
 O         4.750511         0.088546        -0.794042
 C         3.315873         0.267451        -1.232762
 C         2.150225        -0.747498        -1.328144
 O         1.703986         1.410902         0.221685
 H        -0.590308         0.052024         0.909027
 H        -0.634695        -0.487241        -0.793108
 H         0.025932        -1.559602         0.657728
 H         2.352706         0.025451         1.882092
 H         3.176822        -1.406182         1.026644
 H         4.851113         2.186202        -0.218713
 H         5.025456         0.966019         1.194271
 H         3.228705         1.096004        -1.977673
 H         1.454740        -0.518313        -2.178082
 H         2.398726        -1.756534        -1.196086
