19
Iteration:  4969
 C        -0.025097        -0.542957         0.250553
 C         1.409828        -0.189978         0.016850
 C         2.633222        -0.401713         1.046873
 C         3.151789         0.847794         0.238687
 C         4.607311         1.239758         0.170534
 O         4.866017         0.162938        -0.789934
 C         3.314229         0.221136        -1.161450
 C         2.045683        -0.627071        -1.337935
 O         1.781463         1.404835         0.068631
 H        -0.665911         0.084593         0.855407
 H        -0.447221        -0.459995        -0.812296
 H        -0.118660        -1.686187         0.627492
 H         2.330562         0.044043         1.999326
 H         3.336090        -1.285716         1.034289
 H         4.773552         2.207011        -0.223482
 H         5.248157         1.108918         1.083410
 H         3.372977         0.895864        -2.001589
 H         1.229675        -0.388017        -2.125823
 H         2.270144        -1.683796        -1.409892
