19
Iteration:  3014
 C        -0.028084        -0.544454         0.265650
 C         1.440934        -0.184161         0.067782
 C         2.653726        -0.317061         0.968715
 C         3.141422         0.856482         0.148852
 C         4.644959         1.254308         0.236617
 O         4.748903         0.135402        -0.768433
 C         3.319282         0.290687        -1.208178
 C         2.085599        -0.702208        -1.294295
 O         1.758346         1.341232         0.076263
 H        -0.502597        -0.344300         1.232393
 H        -0.530037         0.062390        -0.475560
 H        -0.033902        -1.527060        -0.070734
 H         2.521634        -0.022344         2.052344
 H         3.284857        -1.183091         1.052632
 H         5.002289         2.203480        -0.290253
 H         5.168573         1.056980         1.104197
 H         3.229154         1.026753        -2.070001
 H         1.722268        -0.450900        -2.277705
 H         2.252712        -1.809052        -1.228552
