19
Iteration:  3945
 C        -0.036814        -0.459458         0.253985
 C         1.446864        -0.181531         0.107306
 C         2.682660        -0.344297         0.991438
 C         3.132199         0.829700         0.157513
 C         4.647061         1.183850         0.282212
 O         4.792640         0.270194        -0.901974
 C         3.341277         0.315095        -1.175326
 C         2.138650        -0.737240        -1.273575
 O         1.669558         1.273374         0.025625
 H        -0.411133         0.108464         1.143998
 H        -0.520750        -0.089649        -0.609661
 H        -0.226012        -1.486693         0.510234
 H         2.240804        -0.237542         2.025969
 H         3.276865        -1.183825         0.983834
 H         5.120844         2.199390         0.047441
 H         5.159913         0.775990         1.160045
 H         3.102031         1.078978        -1.887977
 H         1.585767        -0.813248        -2.176892
 H         2.380938        -1.835765        -1.132309
