19
Iteration:  4532charge 0 multiplicity 1
 C        -0.050858        -0.496952         0.291505
 C         1.444821        -0.187890        -0.023809
 C         2.692014        -0.357335         0.934972
 C         3.121114         0.902491         0.139884
 C         4.602505         1.205737         0.212694
 O         4.713951         0.090423        -0.771007
 C         3.339661         0.325346        -1.203137
 C         2.220776        -0.704776        -1.254861
 O         1.717239         1.398047         0.099912
 H        -0.300265        -0.584700         1.361433
 H        -0.829603         0.015070        -0.351465
 H        -0.225948        -1.656023         0.063845
 H         2.656722         0.063412         1.938899
 H         3.385742        -1.276118         1.034052
 H         4.935258         2.041407        -0.368458
 H         5.097898         1.026287         1.293476
 H         3.206095         1.057067        -2.036707
 H         1.627969        -0.550364        -2.225661
 H         2.431489        -1.704623        -0.967813
