19
Iteration:  4820charge 0 multiplicity 1
 C        -0.027335        -0.529512         0.286142
 C         1.400908        -0.158193         0.024643
 C         2.692488        -0.310486         1.005956
 C         3.117227         0.826995         0.189144
 C         4.608764         1.182550         0.266338
 O         4.780086         0.152386        -0.873992
 C         3.375270         0.366331        -1.225270
 C         2.161453        -0.643876        -1.325895
 O         1.708115         1.244139         0.058773
 H        -0.375504         0.330205         1.168778
 H        -0.750754        -0.254901        -0.489399
 H        -0.343965        -1.479626         0.733225
 H         2.497308         0.254033         2.032153
 H         3.210880        -1.239990         1.101903
 H         4.966279         2.204753         0.153668
 H         4.931861         0.594594         1.173013
 H         3.371766         1.148642        -1.997284
 H         1.456728        -0.551817        -2.110944
 H         2.607429        -1.677284        -1.211093
