19
Iteration:  2671
 C         0.073323        -0.513932         0.279161
 C         1.429574        -0.088128         0.027325
 C         2.596636        -0.363914         1.013425
 C         3.087767         0.802932         0.177330
 C         4.576950         1.266773         0.088980
 O         4.848247         0.094485        -0.748588
 C         3.314781         0.213471        -1.244645
 C         2.127898        -0.622697        -1.350415
 O         1.746857         1.370899         0.201985
 H        -0.302492        -0.287130         1.211417
 H        -0.612420        -0.340755        -0.524696
 H         0.082166        -1.645869         0.087240
 H         2.205011         0.030256         1.890185
 H         3.011029        -1.356865         0.955004
 H         4.727295         2.186812        -0.450927
 H         4.967366         1.250731         1.199066
 H         3.475121         1.184941        -1.880192
 H         1.516622        -0.646467        -2.265307
 H         2.257343        -1.671735        -1.192157
