19
Iteration:  4995charge 0 multiplicity 1
 C         0.027557        -0.520243         0.204788
 C         1.423527        -0.138781         0.065090
 C         2.643432        -0.367114         1.005809
 C         3.106786         0.847763         0.126056
 C         4.580872         1.206719         0.143734
 O         4.757947         0.073937        -0.749245
 C         3.401073         0.286569        -1.207672
 C         2.169834        -0.602051        -1.316651
 O         1.668841         1.326948         0.182790
 H        -0.524750         0.174265         0.842726
 H        -0.410329        -0.509179        -0.759209
 H        -0.095375        -1.504043         0.600278
 H         2.712039         0.180510         2.019709
 H         3.310687        -1.215735         1.111576
 H         4.909532         2.089314        -0.509736
 H         5.178094         1.277088         1.108379
 H         3.417445         1.132090        -1.979467
 H         1.400075        -0.393917        -1.971987
 H         2.359820        -1.721419        -1.474922
