19
Iteration:  3051
 C         0.026963        -0.500249         0.257526
 C         1.429939        -0.116366        -0.020462
 C         2.521117        -0.353409         1.112132
 C         3.160731         0.773646         0.239269
 C         4.653308         1.253591         0.088726
 O         4.799888         0.125132        -0.827268
 C         3.330457         0.291651        -1.142203
 C         2.174254        -0.649958        -1.364505
 O         1.746493         1.299902         0.135150
 H        -0.594781        -0.134586         1.074397
 H        -0.558239        -0.322986        -0.726140
 H         0.015117        -1.657073         0.499677
 H         2.138320         0.112707         1.985140
 H         3.010695        -1.355272         1.181444
 H         4.588030         2.321763        -0.381557
 H         5.371225         1.347201         0.998348
 H         3.287809         1.162486        -1.902285
 H         1.497151        -0.447006        -2.317471
 H         2.274571        -1.735234        -1.208924
