19
Iteration:  2442charge 0 multiplicity 1
 C        -0.036603        -0.533152         0.256796
 C         1.461657        -0.135938        -0.010209
 C         2.677699        -0.386693         0.931343
 C         3.097891         0.899056         0.182253
 C         4.637162         1.289558         0.128700
 O         4.790935         0.087074        -0.790924
 C         3.349995         0.265741        -1.129372
 C         2.100908        -0.662796        -1.266560
 O         1.718779         1.337435         0.160759
 H        -0.261762        -0.521976         1.343449
 H        -0.700084         0.078072        -0.345173
 H        -0.168157        -1.596325        -0.167430
 H         2.457112        -0.100362         1.932394
 H         3.225812        -1.266686         0.822224
 H         4.809370         2.210105        -0.366873
 H         5.255748         1.153398         1.074719
 H         3.405771         0.989626        -1.881987
 H         1.498773        -0.344439        -2.168653
 H         2.185411        -1.740441        -1.099565
