19
Iteration:  3600charge 0 multiplicity 1
 C        -0.004459        -0.525770         0.254478
 C         1.490552        -0.207256         0.065334
 C         2.486043        -0.337733         1.093321
 C         3.117297         0.809200         0.111464
 C         4.602208         1.220495         0.246107
 O         4.868949         0.208539        -0.899551
 C         3.349064         0.299943        -1.214354
 C         2.149771        -0.689336        -1.254349
 O         1.715693         1.314291         0.072912
 H        -0.247979         0.093841         1.180948
 H        -0.606669        -0.193021        -0.630529
 H        -0.361973        -1.512944         0.562321
 H         2.363333         0.137722         2.136506
 H         3.119384        -1.227720         1.263986
 H         4.920511         2.208999        -0.188227
 H         5.111150         0.918448         1.165185
 H         3.320742         1.017363        -2.026583
 H         1.672189        -0.403686        -2.293129
 H         2.398483        -1.757868        -1.399717
