19
Iteration:  4192charge 0 multiplicity 1
 C        -0.008908        -0.647943         0.412614
 C         1.438607        -0.139032        -0.011335
 C         2.542061        -0.296435         1.039630
 C         3.050815         0.764611         0.118617
 C         4.573596         1.197825         0.237599
 O         4.818742         0.143467        -0.802720
 C         3.390233         0.310289        -1.229036
 C         2.119570        -0.585658        -1.325225
 O         1.821874         1.385128         0.005174
 H        -0.331924        -0.449518         1.447519
 H        -0.759638        -0.274676        -0.209075
 H         0.116459        -1.637610         0.106326
 H         2.139311         0.222525         1.961435
 H         3.153779        -1.224105         1.101598
 H         4.772624         2.159409        -0.249610
 H         5.236334         1.046604         1.195681
 H         3.427166         1.042510        -1.999388
 H         1.481904        -0.438244        -2.110260
 H         2.571585        -1.663781        -1.230615
