19
Iteration:  2115charge 0 multiplicity 1
 C         0.008616        -0.533353         0.275029
 C         1.417765        -0.201308         0.016532
 C         2.739769        -0.342232         0.923594
 C         3.086532         0.913177         0.143642
 C         4.603704         1.199834         0.208186
 O         4.764599         0.094329        -0.792055
 C         3.365833         0.277611        -1.188372
 C         2.158952        -0.637396        -1.311210
 O         1.678592         1.383703         0.140670
 H        -0.204135        -0.386603         1.410783
 H        -0.705115         0.098364        -0.167515
 H        -0.393894        -1.601043         0.125227
 H         2.459300        -0.180906         1.988439
 H         3.069806        -1.430631         0.796325
 H         4.994005         2.137197        -0.252239
 H         4.995683         1.073828         1.288838
 H         3.458458         1.095308        -1.967567
 H         1.593273        -0.421342        -2.197227
 H         2.394766        -1.664449        -1.240675
