19
Iteration:  4011
 C         0.025224        -0.627102         0.260645
 C         1.474715        -0.144349         0.088051
 C         2.576813        -0.364466         0.994052
 C         3.132994         0.853853         0.252986
 C         4.574410         1.235445         0.069175
 O         4.822543         0.110132        -0.725317
 C         3.427644         0.267454        -1.217008
 C         2.070612        -0.523013        -1.284289
 O         1.713695         1.322758         0.044939
 H        -0.398778        -0.371422         1.252951
 H        -0.683578        -0.159081        -0.418892
 H         0.021664        -1.720870         0.152453
 H         2.256878        -0.148264         2.097305
 H         3.097132        -1.260577         0.970379
 H         4.729832         2.168426        -0.613387
 H         5.179663         1.484170         0.943071
 H         3.585903         1.113973        -1.854987
 H         1.310662        -0.302169        -2.063997
 H         2.262590        -1.624001        -1.366762
