19
Iteration:   716charge 0 multiplicity 1
 C         0.109903        -0.730869         0.291135
 C         1.412438        -0.097612        -0.015795
 C         2.550183        -0.266606         1.014434
 C         3.121269         0.799792         0.192118
 C         4.587583         1.183547         0.151814
 O         4.904865         0.100415        -0.829189
 C         3.350941         0.304840        -1.195223
 C         1.996454        -0.530123        -1.340854
 O         1.729816         1.395412         0.153369
 H         0.011645        -0.610664         1.464705
 H        -0.756323        -0.310921        -0.238351
 H         0.189900        -1.793573         0.098783
 H         2.170009         0.214496         1.914486
 H         2.913120        -1.312652         1.123064
 H         4.766821         2.244588        -0.150181
 H         5.231940         0.871504         1.085488
 H         3.334955         1.128104        -1.902791
 H         1.647518        -0.217403        -2.291927
 H         2.120588        -1.616986        -1.291204
