19
Iteration:  1406charge 0 multiplicity 1
 C         0.087668        -0.590869         0.347270
 C         1.417444        -0.107754        -0.083576
 C         2.542577        -0.397667         1.026203
 C         3.152307         0.813511         0.236295
 C         4.638300         1.249376         0.164751
 O         4.840111         0.151104        -0.756512
 C         3.349322         0.294167        -1.153148
 C         2.015542        -0.598936        -1.403463
 O         1.730548         1.348524         0.076872
 H         0.049170        -0.761337         1.403017
 H        -0.756587         0.019839        -0.023812
 H        -0.061198        -1.720622        -0.015427
 H         2.101709        -0.006045         1.900274
 H         3.121390        -1.301529         1.032204
 H         5.011200         2.319697        -0.198508
 H         5.209914         0.970056         1.005215
 H         3.412833         1.107137        -2.029349
 H         1.471605        -0.422054        -2.330894
 H         2.199918        -1.655383        -1.307363
