19
Iteration:  2461charge 0 multiplicity 1
 C         0.063186        -0.569297         0.300346
 C         1.445383        -0.188918         0.110989
 C         2.529885        -0.367884         1.127266
 C         3.161927         0.788942         0.165124
 C         4.603059         1.226427         0.158070
 O         4.841550         0.107950        -0.764776
 C         3.333257         0.323103        -1.291707
 C         2.101157        -0.557098        -1.373884
 O         1.734341         1.345305         0.055680
 H        -0.235522        -0.471479         1.464924
 H        -0.714829        -0.002298        -0.331559
 H        -0.180942        -1.569963        -0.157601
 H         2.277436         0.018766         2.141508
 H         3.060742        -1.327400         1.250170
 H         4.690186         2.133700        -0.493618
 H         5.322636         1.219393         0.980346
 H         3.237280         1.236718        -1.987045
 H         1.489219        -0.205847        -2.234771
 H         2.317300        -1.667677        -1.466717
