19
Iteration:   430charge 0 multiplicity 1
 C         0.005262        -0.573143         0.257512
 C         1.401979        -0.076462        -0.019861
 C         2.522863        -0.426298         1.012428
 C         3.173613         0.731219         0.292814
 C         4.691282         1.204333         0.171049
 O         4.804868         0.308625        -0.998184
 C         3.316471         0.279981        -1.046889
 C         2.132217        -0.673998        -1.312048
 O         1.756989         1.335010         0.120101
 H        -0.144142        -0.286473         1.390459
 H        -0.933556        -0.133022        -0.198673
 H        -0.119251        -1.633341         0.212834
 H         2.284987         0.002939         1.971775
 H         2.907821        -1.447792         1.096852
 H         4.800224         2.271324        -0.192994
 H         5.382816         0.954746         1.014521
 H         3.143756         1.145804        -1.851629
 H         1.747507        -0.567308        -2.297998
 H         2.346617        -1.705112        -1.189396
