19
Iteration:  1449charge 0 multiplicity 1
 C        -0.026129        -0.538292         0.293608
 C         1.508422        -0.237569         0.023186
 C         2.751298        -0.375403         0.958332
 C         3.061701         0.933762         0.210915
 C         4.621582         1.168032         0.253224
 O         4.731736         0.108413        -0.770939
 C         3.269777         0.372123        -1.253888
 C         2.131722        -0.639106        -1.345921
 O         1.721219         1.353441         0.115410
 H        -0.298817        -0.164567         1.236989
 H        -0.462139         0.002844        -0.619195
 H        -0.213905        -1.700400         0.278337
 H         2.440011        -0.222659         1.956550
 H         3.437544        -1.155359         0.686543
 H         4.972860         2.171438        -0.137539
 H         5.119583         1.024514         1.120545
 H         3.299415         1.214427        -2.068485
 H         1.569527        -0.600211        -2.292500
 H         2.391363        -1.679495        -1.169692
