19
Iteration:  1332
 C        -0.062214        -0.465228         0.174587
 C         1.477540        -0.219824         0.050074
 C         2.690667        -0.451001         1.093666
 C         3.059157         0.832618         0.215103
 C         4.604147         1.214809         0.155571
 O         4.733220         0.199562        -0.901700
 C         3.351694         0.342671        -1.154497
 C         2.225386        -0.621404        -1.287288
 O         1.724071         1.312003         0.127511
 H        -0.363151         0.160019         1.050378
 H        -0.554605        -0.247491        -0.710418
 H        -0.214686        -1.593211         0.559202
 H         2.377330        -0.289406         2.149714
 H         3.232324        -1.451169         0.937136
 H         4.989944         2.135002        -0.302776
 H         5.175741         1.050268         1.152746
 H         3.213882         1.175952        -1.830584
 H         1.579673        -0.538727        -2.188805
 H         2.416484        -1.693171        -1.225591
