19
Iteration:  1535
 C         0.003728        -0.464280         0.252975
 C         1.454116        -0.183552         0.042245
 C         2.650774        -0.350114         0.967655
 C         3.135749         0.830212         0.168587
 C         4.577289         1.093960         0.260935
 O         4.788392         0.185470        -0.858184
 C         3.320376         0.388170        -1.287661
 C         2.242112        -0.698188        -1.300004
 O         1.625429         1.336166         0.204858
 H        -0.335177        -0.051455         1.138575
 H        -0.674299        -0.128505        -0.601291
 H        -0.216515        -1.542663         0.259323
 H         2.570606        -0.023376         1.998012
 H         3.280980        -1.248263         0.913930
 H         4.749981         2.161099        -0.042174
 H         5.310840         0.784198         1.036324
 H         3.186877         1.213092        -1.944145
 H         1.657101        -0.691653        -2.289745
 H         2.562503        -1.728461        -1.098438
