19
Iteration:  2476
 C        -0.020292        -0.569823         0.336548
 C         1.424754        -0.149306        -0.018877
 C         2.594718        -0.300522         1.098699
 C         3.110499         0.816005         0.206731
 C         4.575584         1.228139         0.145561
 O         4.825074         0.089206        -0.866369
 C         3.405106         0.344347        -1.137779
 C         2.135964        -0.585073        -1.403308
 O         1.758430         1.287485         0.081783
 H        -0.250081        -0.417100         1.377286
 H        -0.781633        -0.065897        -0.196386
 H        -0.020760        -1.747080         0.189223
 H         2.231610         0.212895         1.960501
 H         3.064772        -1.211640         1.371583
 H         4.875197         2.186807        -0.144049
 H         4.969601         0.938366         1.183331
 H         3.429674         1.044248        -1.911204
 H         1.438163        -0.270697        -2.240685
 H         2.323423        -1.621764        -1.599487
