19
Iteration:   657charge 0 multiplicity 1
 C         0.078304        -0.408350         0.278630
 C         1.485772        -0.193656         0.006596
 C         2.666497        -0.442258         0.986229
 C         3.103885         0.836707         0.166434
 C         4.611775         1.268891         0.227985
 O         4.708080         0.183107        -0.819841
 C         3.295771         0.327154        -1.299175
 C         2.178160        -0.692383        -1.415135
 O         1.690297         1.259257         0.285562
 H        -0.266429         0.232508         1.064529
 H        -0.519565        -0.207161        -0.618973
 H        -0.189564        -1.425517         0.562741
 H         2.387915        -0.168025         2.022579
 H         3.149393        -1.426966         1.008384
 H         4.802491         2.313123        -0.030075
 H         5.146228         1.004494         1.054726
 H         3.271042         1.001567        -2.089690
 H         1.635550        -0.538905        -2.406156
 H         2.491795        -1.734844        -1.262227
