19
Iteration:  2595
 C         0.026816        -0.523411         0.274827
 C         1.428220        -0.160550         0.020393
 C         2.579844        -0.371962         0.984930
 C         3.069987         0.928853         0.174782
 C         4.583947         1.201864         0.201502
 O         4.792673         0.142346        -0.844067
 C         3.317697         0.304921        -1.225446
 C         2.177091        -0.703593        -1.312917
 O         1.766725         1.359813         0.182451
 H        -0.259005        -0.178793         1.239644
 H        -0.665320         0.038192        -0.363484
 H        -0.202671        -1.658108         0.074121
 H         2.433029         0.069217         1.926846
 H         3.168378        -1.218481         1.025634
 H         5.015563         2.086507        -0.137771
 H         5.030651         0.865100         1.217603
 H         3.449857         0.902087        -2.145656
 H         1.655881        -0.856395        -2.284034
 H         2.545436        -1.710089        -1.209906
