19
Iteration:  1544charge 0 multiplicity 1
 C        -0.078657        -0.531470         0.265794
 C         1.423026        -0.206438         0.039792
 C         2.690579        -0.368028         0.953837
 C         3.126764         0.875897         0.094766
 C         4.633354         1.154913         0.246546
 O         4.746066         0.159634        -0.848032
 C         3.282631         0.403740        -1.224319
 C         2.247355        -0.677458        -1.299779
 O         1.682983         1.329208         0.196506
 H        -0.252078        -0.117520         1.170006
 H        -0.561695         0.067202        -0.513556
 H        -0.330689        -1.478087         0.231101
 H         2.440477         0.003352         1.957510
 H         3.246200        -1.329876         0.913810
 H         5.100599         2.047965        -0.004049
 H         5.087326         0.895629         1.333707
 H         3.341787         1.062193        -1.987216
 H         1.787031        -0.627521        -2.282292
 H         2.696373        -1.675211        -1.142436
