19
Iteration:  4922
 C        -0.001111        -0.452579         0.332250
 C         1.391518        -0.235939         0.000639
 C         2.600524        -0.338106         1.024097
 C         3.104583         0.857720         0.155044
 C         4.614116         1.141172         0.218006
 O         4.776839         0.136212        -0.790382
 C         3.352107         0.401214        -1.242123
 C         2.253550        -0.723877        -1.345940
 O         1.689165         1.339482         0.060034
 H        -0.168675        -0.139220         1.460758
 H        -0.683514         0.199222        -0.275163
 H        -0.279366        -1.511629         0.255874
 H         2.405958         0.044549         2.020590
 H         3.156073        -1.331186         0.989158
 H         4.910891         2.168713        -0.106628
 H         5.126751         0.916368         1.093842
 H         3.186160         1.289634        -1.811887
 H         1.796823        -0.821458        -2.341573
 H         2.633980        -1.739664        -1.135779
