19
Iteration:  1850
 C         0.001032        -0.430646         0.217284
 C         1.470418        -0.332113         0.010983
 C         2.651356        -0.325088         0.962748
 C         3.076159         0.877422         0.129610
 C         4.610163         1.227120         0.173733
 O         4.777067         0.123174        -0.807104
 C         3.320822         0.372500        -1.222514
 C         2.162612        -0.716820        -1.307728
 O         1.746742         1.326267         0.262267
 H        -0.489816         0.275834         0.878286
 H        -0.483295        -0.369203        -0.862147
 H        -0.242347        -1.444879         0.492859
 H         2.302485        -0.046720         1.957536
 H         3.326205        -1.172250         0.947846
 H         4.759623         2.209212        -0.144067
 H         5.045908         0.953962         1.240896
 H         3.138167         1.098362        -1.912528
 H         1.519253        -0.597506        -2.080309
 H         2.562142        -1.686105        -1.194506
