19
Iteration:  3574
 C         0.011534        -0.456168         0.225970
 C         1.477218        -0.120957        -0.011733
 C         2.585092        -0.380294         1.023400
 C         3.079499         0.882410         0.230720
 C         4.617925         1.177700         0.169782
 O         4.701515         0.152743        -0.848228
 C         3.261142         0.385214        -1.139075
 C         2.290211        -0.771609        -1.274706
 O         1.733548         1.301686         0.078746
 H        -0.323658         0.003242         1.190187
 H        -0.712911        -0.261891        -0.600012
 H        -0.013520        -1.530819         0.532159
 H         2.526290        -0.071724         2.072423
 H         3.318889        -1.144617         1.043087
 H         4.855555         2.250260        -0.217966
 H         5.241702         0.901092         1.028217
 H         3.184568         1.059338        -1.968925
 H         1.953911        -0.743676        -2.239529
 H         2.458005        -1.843059        -1.050963
