19
Iteration:  4544charge 0 multiplicity 1
 C        -0.033048        -0.567260         0.348528
 C         1.418826        -0.133202         0.038595
 C         2.620483        -0.276770         0.948447
 C         3.095695         0.872058         0.145444
 C         4.602396         1.232444         0.220416
 O         4.794497         0.099779        -0.779699
 C         3.365145         0.313032        -1.236113
 C         2.150099        -0.712070        -1.306500
 O         1.755603         1.369395         0.073851
 H        -0.271590        -0.303402         1.334368
 H        -0.716843         0.057671        -0.284805
 H        -0.134438        -1.688630         0.035572
 H         2.278797        -0.177278         1.946784
 H         3.161489        -1.256405         0.739601
 H         5.030788         2.232871         0.041376
 H         5.154314         0.824378         1.159922
 H         3.413978         1.099463        -2.001248
 H         1.477050        -0.856323        -2.243669
 H         2.496917        -1.690454        -1.168322
