19
Iteration:  2167
 C        -0.014434        -0.533282         0.319013
 C         1.388895        -0.182412         0.010320
 C         2.517503        -0.366413         1.064553
 C         3.090688         0.822845         0.201317
 C         4.599777         1.226431         0.149476
 O         4.867104         0.129074        -0.884530
 C         3.399673         0.275648        -1.202336
 C         2.170073        -0.634899        -1.392716
 O         1.774617         1.407739         0.160832
 H        -0.440719        -0.217874         1.329286
 H        -0.721541        -0.409521        -0.497370
 H        -0.022368        -1.574184         0.535614
 H         2.113818        -0.206838         2.055625
 H         3.066548        -1.326921         0.988700
 H         4.661371         2.266249        -0.007327
 H         5.358256         1.003109         1.028410
 H         3.412924         1.276108        -1.806951
 H         1.499901        -0.415929        -2.284031
 H         2.311357        -1.792301        -1.389518
