19
Iteration:  3813
 C         0.029350        -0.568784         0.359169
 C         1.360105        -0.081187        -0.088840
 C         2.533946        -0.360085         0.961473
 C         3.135588         0.769371         0.237828
 C         4.647165         1.266336         0.150164
 O         4.844011         0.147937        -0.783154
 C         3.317545         0.289500        -1.188119
 C         2.154662        -0.678415        -1.313695
 O         1.729542         1.380158         0.087900
 H        -0.051328        -0.333102         1.439899
 H        -0.739469        -0.325084        -0.327935
 H         0.004914        -1.644513         0.297068
 H         2.290207        -0.023081         2.018085
 H         3.179289        -1.232055         1.034169
 H         4.895136         2.196213        -0.361044
 H         5.265377         1.079102         1.045599
 H         3.316882         1.084607        -1.973173
 H         1.682420        -0.601796        -2.257974
 H         2.166125        -1.803403        -1.036666
