19
Iteration:   424charge 0 multiplicity 1
 C         0.013590        -0.569656         0.297668
 C         1.414550        -0.085729        -0.025310
 C         2.463837        -0.423302         1.002363
 C         3.213125         0.793067         0.266672
 C         4.645415         1.246636         0.137021
 O         4.822431         0.290903        -0.965830
 C         3.290042         0.217591        -1.090372
 C         2.153059        -0.663524        -1.327929
 O         1.789262         1.324654         0.178750
 H        -0.202608        -0.364587         1.344289
 H        -0.743338        -0.057686        -0.250423
 H        -0.017076        -1.685594         0.050800
 H         2.196961        -0.002313         2.013259
 H         2.814758        -1.475288         1.042223
 H         4.751706         2.236778        -0.255689
 H         5.279186         1.016184         1.052697
 H         3.162685         1.014315        -1.695538
 H         1.777009        -0.367046        -2.385421
 H         2.203069        -1.856572        -1.274259
