19
Iteration:  1759
 C         0.020168        -0.543347         0.321545
 C         1.492519        -0.162241        -0.033983
 C         2.626785        -0.374671         0.991450
 C         3.144975         0.776371         0.164536
 C         4.597587         1.211462         0.260882
 O         4.764274         0.116908        -0.760518
 C         3.315958         0.376344        -1.253789
 C         2.129598        -0.596940        -1.308086
 O         1.691236         1.321206         0.054348
 H        -0.081518        -0.445998         1.410157
 H        -0.630225         0.129363        -0.225312
 H        -0.157712        -1.613348         0.018420
 H         2.424753         0.094288         1.939094
 H         3.277025        -1.247534         0.985344
 H         4.842199         2.181177        -0.243218
 H         5.163294         0.982030         1.158696
 H         3.386245         1.193366        -2.002902
 H         1.427354        -0.376265        -2.207770
 H         2.453651        -1.670582        -1.074046
