19
Iteration:  1391charge 0 multiplicity 1
 C         0.006957        -0.631121         0.308324
 C         1.392879        -0.157335         0.052908
 C         2.574714        -0.342259         0.948795
 C         3.113060         0.800699         0.200488
 C         4.590238         1.216641         0.203361
 O         4.851691         0.121939        -0.812635
 C         3.354565         0.304163        -1.171194
 C         2.148774        -0.616803        -1.341887
 O         1.786751         1.413107         0.083477
 H        -0.273611        -0.586730         1.389017
 H        -0.854226         0.034156        -0.137107
 H        -0.134470        -1.565216        -0.107557
 H         2.440944        -0.198988         2.046497
 H         3.006762        -1.352098         0.850417
 H         4.548814         2.077340        -0.354831
 H         5.181812         1.355923         1.114480
 H         3.233877         1.184852        -1.782572
 H         1.544524        -0.163692        -2.156971
 H         2.251453        -1.751238        -1.431976
