19
Iteration:  3311
 C         0.036519        -0.564427         0.324986
 C         1.404147        -0.141299        -0.054260
 C         2.618537        -0.334642         0.969926
 C         3.105657         0.878272         0.208836
 C         4.593716         1.244271         0.124867
 O         4.847028        -0.006248        -0.734675
 C         3.302138         0.342521        -1.170328
 C         2.171756        -0.643577        -1.308862
 O         1.673250         1.397761         0.079695
 H        -0.226442        -0.280351         1.353760
 H        -0.619917         0.093419        -0.312832
 H        -0.042570        -1.686795         0.250452
 H         2.424918         0.032537         1.998362
 H         3.164991        -1.393278         0.944128
 H         4.748810         2.297169        -0.278132
 H         5.285746         1.148516         0.942057
 H         3.336589         0.971553        -2.048056
 H         1.668618        -0.684059        -2.318795
 H         2.469696        -1.654284        -1.020317
