19
Iteration:  3955
 C        -0.027567        -0.458929         0.267597
 C         1.445075        -0.163958         0.033975
 C         2.706609        -0.416607         0.979581
 C         3.139109         0.836020         0.211961
 C         4.612150         1.138962         0.270163
 O         4.840534         0.244724        -0.886733
 C         3.292736         0.362347        -1.209022
 C         2.131228        -0.723975        -1.228517
 O         1.628485         1.311212         0.011176
 H        -0.313828         0.114129         1.213490
 H        -0.654767        -0.193704        -0.560530
 H        -0.240075        -1.518625         0.399800
 H         2.767907         0.068151         2.024844
 H         3.165804        -1.330287         0.911342
 H         4.945578         2.171484        -0.098907
 H         4.946811         0.811804         1.298416
 H         3.281256         1.056053        -2.009737
 H         1.539983        -0.879429        -2.054251
 H         2.788592        -1.595384        -0.860056
