19
Iteration:  4798charge 0 multiplicity 1
 C         0.028827        -0.461392         0.340544
 C         1.424809        -0.262434         0.007079
 C         2.597656        -0.384899         1.005271
 C         3.073266         0.843993         0.151270
 C         4.650315         1.123136         0.264615
 O         4.834161         0.237089        -0.867931
 C         3.382699         0.324326        -1.221326
 C         2.161562        -0.719525        -1.324593
 O         1.690229         1.422989         0.092300
 H        -0.787973         0.137943         0.999492
 H        -0.551524        -0.544896        -0.577349
 H        -0.096002        -1.512221         0.704526
 H         2.367257         0.070920         2.032707
 H         3.150680        -1.325907         1.004377
 H         4.928527         2.128889        -0.010017
 H         5.044122         0.711231         1.227523
 H         3.258101         1.025387        -2.060731
 H         1.556973        -0.478989        -2.173709
 H         2.242319        -1.842681        -1.242682
