19
Iteration:  4640
 C        -0.021759        -0.526916         0.219605
 C         1.446908        -0.173800         0.070964
 C         2.637734        -0.348223         1.047748
 C         3.147278         0.845377         0.145510
 C         4.579586         1.212806         0.143202
 O         4.775327         0.121240        -0.782239
 C         3.322039         0.314437        -1.233267
 C         2.118713        -0.719999        -1.284692
 O         1.735473         1.395636         0.165659
 H        -0.391468         0.201412         0.892850
 H        -0.434359        -0.315988        -0.807755
 H        -0.142655        -1.621453         0.442246
 H         2.529540        -0.041352         2.057509
 H         3.369554        -1.176539         0.995666
 H         4.887482         2.178725        -0.129021
 H         5.241927         0.935639         1.019213
 H         3.391383         1.070840        -2.062908
 H         1.535339        -0.525030        -2.175344
 H         2.397634        -1.737423        -1.497052
