19
Iteration:  3431
 C        -0.057389        -0.534414         0.239896
 C         1.437520        -0.101526         0.054804
 C         2.515324        -0.317447         1.073229
 C         3.206401         0.820870         0.225514
 C         4.636315         1.307006         0.170341
 O         4.862783         0.152854        -0.884590
 C         3.385978         0.236400        -1.146547
 C         2.101680        -0.715068        -1.273340
 O         1.707064         1.303759         0.058101
 H        -0.654070        -0.076602         1.013148
 H        -0.637859        -0.277327        -0.690937
 H         0.079601        -1.650994         0.471774
 H         2.535673        -0.077809         2.071855
 H         3.079390        -1.312078         1.041172
 H         4.880367         2.370945        -0.112540
 H         5.353598         0.951655         0.918734
 H         3.242874         1.003664        -1.849019
 H         1.533683        -0.336600        -2.120758
 H         2.089504        -1.767385        -1.474286
