19
Iteration:  3724charge 0 multiplicity 1
 C         0.020559        -0.540038         0.311938
 C         1.411648        -0.152001        -0.014533
 C         2.504929        -0.312230         1.068711
 C         3.065035         0.745868         0.247556
 C         4.550366         1.209606         0.188932
 O         4.839260         0.153391        -0.902746
 C         3.353651         0.330183        -1.213877
 C         2.181047        -0.698938        -1.315253
 O         1.829392         1.379109         0.096585
 H        -0.271740        -0.170041         1.323773
 H        -0.734661        -0.315161        -0.493982
 H         0.014673        -1.650274         0.271004
 H         2.187213         0.261065         1.918047
 H         3.259128        -1.178395         1.110637
 H         4.653477         2.171673        -0.250377
 H         5.161541         1.102687         1.190157
 H         3.205736         1.079332        -2.036237
 H         1.739367        -0.573023        -2.334263
 H         2.371163        -1.754016        -0.913130
