19
Iteration:  2132
 C         0.072175        -0.451031         0.360980
 C         1.500900        -0.182013         0.052482
 C         2.675727        -0.397594         0.965996
 C         3.081807         0.907422         0.145421
 C         4.607415         1.169591         0.255125
 O         4.760803         0.088650        -0.761554
 C         3.309274         0.390899        -1.249472
 C         2.159049        -0.655339        -1.342372
 O         1.605519         1.275755         0.055508
 H        -0.319437        -0.087036         1.287781
 H        -0.525662         0.211191        -0.407310
 H        -0.068878        -1.421045         0.040101
 H         2.601070        -0.241062         2.022227
 H         3.516384        -0.992417         0.772397
 H         4.953355         2.149564        -0.078609
 H         5.154702         0.687439         1.078010
 H         3.334532         1.189571        -2.050235
 H         1.459197        -0.451736        -2.225534
 H         2.477064        -1.779482        -1.225759
