19
Iteration:   438
 C        -0.028213        -0.536553         0.287224
 C         1.394867        -0.138389        -0.018943
 C         2.559754        -0.414564         1.064718
 C         3.139299         0.708813         0.312943
 C         4.699753         1.148541         0.200808
 O         4.798573         0.298225        -1.004478
 C         3.366386         0.376956        -1.161087
 C         2.150184        -0.679639        -1.283773
 O         1.727406         1.350431         0.077381
 H        -0.209755        -0.311013         1.262573
 H        -0.824998        -0.109160        -0.415011
 H        -0.060575        -1.701334         0.290578
 H         2.205413        -0.175334         2.069518
 H         3.144108        -1.344772         1.053439
 H         4.830019         2.304848         0.002297
 H         5.406805         0.875693         0.896476
 H         3.042391         1.278445        -1.771438
 H         1.556370        -0.631662        -2.179679
 H         2.439629        -1.658078        -1.033672
