19
Iteration:  3380
 C         0.018140        -0.448610         0.240990
 C         1.491841        -0.151805         0.064707
 C         2.657504        -0.405537         1.002024
 C         3.109128         0.897000         0.179219
 C         4.594612         1.234553         0.197178
 O         4.715125         0.119291        -0.819127
 C         3.331764         0.250636        -1.157865
 C         2.239817        -0.703958        -1.282835
 O         1.656207         1.344994         0.064800
 H        -0.439060         0.067507         1.074075
 H        -0.499338        -0.050757        -0.604329
 H        -0.138181        -1.519992         0.391628
 H         2.459685        -0.165532         2.101143
 H         3.291557        -1.282400         0.833606
 H         5.037889         2.095837        -0.361329
 H         5.042323         1.193018         1.131882
 H         3.187342         1.042198        -1.948454
 H         1.662004        -0.574185        -2.170811
 H         2.464102        -1.819478        -1.126420
