19
Iteration:  4568charge 0 multiplicity 1
 C         0.013325        -0.509805         0.360128
 C         1.464951        -0.158035        -0.022309
 C         2.566128        -0.308226         1.028865
 C         3.134453         0.755104         0.183680
 C         4.573169         1.194892         0.196863
 O         4.859412         0.158954        -0.822587
 C         3.397762         0.245523        -1.199562
 C         2.150554        -0.602583        -1.316869
 O         1.675688         1.335598         0.023795
 H        -0.156141        -0.104730         1.313938
 H        -0.790820        -0.283397        -0.322347
 H         0.153380        -1.603702         0.375642
 H         2.125880         0.132705         1.951072
 H         2.944289        -1.328051         1.278814
 H         4.968007         2.274494        -0.031030
 H         5.209192         0.959323         1.060910
 H         3.340419         1.096294        -1.861270
 H         1.372981        -0.314581        -2.115605
 H         1.999224        -1.662331        -1.472897
