19
Iteration:  2811charge 0 multiplicity 1
 C        -0.017752        -0.488896         0.306902
 C         1.470400        -0.279266        -0.057656
 C         2.725433        -0.289240         1.009438
 C         3.119173         0.889201         0.224975
 C         4.616017         1.269604         0.146383
 O         4.696133         0.042924        -0.744116
 C         3.337766         0.364603        -1.163857
 C         2.179458        -0.663428        -1.310964
 O         1.677256         1.300911         0.068000
 H        -0.002659        -0.113511         1.345392
 H        -0.471314         0.227373        -0.364982
 H        -0.347278        -1.488034         0.005431
 H         2.318712         0.059995         1.937198
 H         3.266996        -1.326892         1.059854
 H         4.766958         2.203237        -0.373438
 H         5.268411         1.064751         1.048395
 H         3.309049         1.020047        -2.006206
 H         1.688430        -0.603144        -2.297209
 H         2.385076        -1.698316        -1.223911
