19
Iteration:  1670charge 0 multiplicity 1
 C        -0.070808        -0.563471         0.261940
 C         1.403224        -0.242505        -0.042852
 C         2.538408        -0.368509         1.035126
 C         3.130402         0.859940         0.304025
 C         4.644245         1.198733         0.229721
 O         4.884446         0.186736        -0.956907
 C         3.337475         0.335788        -1.138069
 C         2.149272        -0.648970        -1.334667
 O         1.752345         1.368276         0.139612
 H        -0.460987         0.166494         1.095330
 H        -0.705275        -0.383259        -0.618297
 H        -0.149143        -1.724430         0.541503
 H         2.317864        -0.060220         2.058644
 H         3.214381        -1.220325         1.065586
 H         4.935240         2.155936        -0.367817
 H         5.169802         0.879210         1.080843
 H         3.331852         1.254897        -1.879731
 H         1.470982        -0.558222        -2.330880
 H         2.430896        -1.757232        -1.180322
