19
Iteration:  2472charge 0 multiplicity 1
 C        -0.024990        -0.572463         0.320969
 C         1.470717        -0.145146         0.003162
 C         2.579916        -0.350214         1.164310
 C         3.074084         0.802535         0.162699
 C         4.590364         1.230843         0.152533
 O         4.853111         0.078552        -0.846586
 C         3.332004         0.334318        -1.178728
 C         2.150153        -0.560141        -1.415559
 O         1.760209         1.301598         0.066073
 H        -0.266883        -0.557731         1.516586
 H        -0.768001         0.075620        -0.249466
 H         0.076050        -1.669861         0.196666
 H         2.255271         0.288762         2.007122
 H         3.034696        -1.324558         1.371281
 H         4.831748         2.262959        -0.229101
 H         5.043607         1.104315         1.151170
 H         3.506425         1.207852        -1.891982
 H         1.426131        -0.198331        -2.184379
 H         2.312107        -1.671087        -1.545713
