19
Iteration:  3626
 C        -0.091556        -0.558394         0.295098
 C         1.444255        -0.088993         0.048869
 C         2.600408        -0.352044         1.027108
 C         3.160421         0.779643         0.177821
 C         4.606114         1.284453         0.166772
 O         4.869862         0.178827        -0.789193
 C         3.394883         0.227638        -1.157203
 C         2.045826        -0.678381        -1.316082
 O         1.737665         1.344730         0.054044
 H        -0.469981        -0.231738         1.224343
 H        -0.653197        -0.343510        -0.590624
 H        -0.196393        -1.668716         0.299903
 H         2.338603        -0.036868         2.004917
 H         3.311087        -1.276456         0.884590
 H         4.701966         2.161840        -0.376494
 H         5.294034         1.202432         1.063719
 H         3.352841         1.093375        -1.908606
 H         1.674901        -0.422265        -2.334165
 H         2.331014        -1.737310        -1.238652
