19
Iteration:  2556charge 0 multiplicity 1
 C         0.033841        -0.504682         0.252676
 C         1.435264        -0.219061         0.004815
 C         2.518959        -0.394867         1.106967
 C         3.080645         0.808257         0.215522
 C         4.693216         1.284568         0.085925
 O         4.859947         0.125666        -0.833068
 C         3.338065         0.309344        -1.129453
 C         2.098022        -0.569038        -1.343843
 O         1.778129         1.284187         0.126916
 H        -0.367171         0.096924         1.089032
 H        -0.548746        -0.456218        -0.718387
 H        -0.101997        -1.535233         0.495623
 H         1.911519        -0.197741         2.079260
 H         3.163133        -1.365742         0.963618
 H         4.747308         2.269232        -0.548958
 H         5.218816         1.229162         1.006886
 H         3.156247         1.162560        -1.888807
 H         1.388984        -0.159681        -2.074999
 H         2.183114        -1.696390        -1.241530
