19
Iteration:  1588
 C         0.048794        -0.637645         0.316708
 C         1.437749        -0.106534        -0.007081
 C         2.523165        -0.387240         1.029909
 C         3.175193         0.782654         0.219530
 C         4.536367         1.307201         0.108214
 O         4.867436         0.060357        -0.776838
 C         3.393922         0.256285        -1.173393
 C         2.077969        -0.480203        -1.384306
 O         1.737843         1.344226         0.115738
 H        -0.149058        -0.699211         1.303950
 H        -0.738394        -0.102825        -0.216748
 H        -0.013760        -1.545307        -0.083588
 H         2.244823         0.046814         2.002238
 H         2.985888        -1.401622         1.085163
 H         4.752292         2.173366        -0.343675
 H         5.204491         1.312429         1.049310
 H         3.417564         1.097340        -1.749673
 H         1.466058        -0.122730        -2.197321
 H         2.159693        -1.566012        -1.413661
