19
Iteration:  1492
 C        -0.100713        -0.591626         0.251047
 C         1.375012        -0.212113         0.020376
 C         2.532972        -0.386330         1.065204
 C         3.157440         0.713687         0.290334
 C         4.637387         1.221989         0.144077
 O         4.841441         0.226408        -0.895795
 C         3.390270         0.344742        -1.156924
 C         2.111498        -0.631130        -1.353756
 O         1.843365         1.384882         0.153266
 H        -0.485675         0.019613         1.016773
 H        -0.673783        -0.439270        -0.785894
 H        -0.154973        -1.751650         0.500147
 H         2.186415        -0.070820         2.042113
 H         3.088327        -1.327061         1.134456
 H         4.524101         2.259309        -0.301712
 H         5.430156         1.324969         0.852469
 H         3.428768         1.209209        -1.895209
 H         1.389586        -0.335470        -2.189123
 H         2.398355        -1.697212        -1.442144
