19
Iteration:  1104charge 0 multiplicity 1
 C        -0.000505        -0.607361         0.223505
 C         1.439214        -0.166461        -0.016836
 C         2.511768        -0.470537         1.040784
 C         3.133434         0.812821         0.258838
 C         4.582429         1.259262         0.143189
 O         4.886024         0.156803        -0.820485
 C         3.320233         0.346831        -1.173980
 C         2.116307        -0.588742        -1.290363
 O         1.764633         1.365962         0.137950
 H        -0.212504        -0.208618         1.330273
 H        -0.687433        -0.233769        -0.481395
 H         0.110428        -1.670321         0.194609
 H         2.321332        -0.084456         2.037504
 H         3.013847        -1.470277         1.074744
 H         4.590060         2.144366        -0.518182
 H         5.410048         1.249313         0.930467
 H         3.319340         1.155261        -2.006451
 H         1.566009        -0.106147        -2.184636
 H         2.253955        -1.687063        -1.501039
