19
Iteration:   987charge 0 multiplicity 1
 C         0.036981        -0.499202         0.139665
 C         1.457260        -0.126960         0.008839
 C         2.626099        -0.397421         1.023391
 C         3.123174         0.768354         0.287649
 C         4.586505         1.242029         0.143190
 O         4.770038         0.168824        -0.854325
 C         3.336011         0.320091        -1.160523
 C         2.112436        -0.655666        -1.318736
 O         1.762798         1.297744         0.229314
 H        -0.541410         0.023833         0.961791
 H        -0.531638        -0.281308        -0.810751
 H         0.074021        -1.539130         0.294599
 H         2.438223        -0.193721         2.061121
 H         3.273012        -1.249424         0.874404
 H         4.647916         2.265291        -0.460810
 H         5.184343         1.168203         1.021560
 H         3.002249         1.130315        -1.797419
 H         1.574574        -0.422323        -2.200045
 H         2.341707        -1.700853        -1.246869
