19
Iteration:  4248charge 0 multiplicity 1
 C        -0.035507        -0.514297         0.249963
 C         1.516631        -0.250221         0.077680
 C         2.635754        -0.330154         1.062775
 C         3.059467         0.847528         0.109803
 C         4.629794         1.282947         0.171660
 O         4.724360         0.048675        -0.763967
 C         3.306529         0.351032        -1.242652
 C         2.237749        -0.599347        -1.307447
 O         1.739120         1.282309         0.092606
 H        -0.385950         0.151590         1.049187
 H        -0.442956        -0.200155        -0.691806
 H        -0.410605        -1.494395         0.482958
 H         2.360653         0.001567         2.134707
 H         3.302192        -1.179246         1.120653
 H         4.849823         2.182026        -0.415111
 H         5.307640         1.265570         1.120067
 H         3.172877         1.074635        -2.025616
 H         1.391451        -0.369685        -1.901003
 H         2.561418        -1.702589        -1.420551
