19
Iteration:  1418charge 0 multiplicity 1
 C         0.068143        -0.585520         0.388083
 C         1.447019        -0.130714        -0.003077
 C         2.559696        -0.324768         0.971000
 C         3.090942         0.856481         0.198358
 C         4.655193         1.172261         0.254793
 O         4.772452         0.132421        -0.788045
 C         3.392641         0.318425        -1.286410
 C         2.182125        -0.573564        -1.391263
 O         1.677940         1.281472         0.098370
 H        -0.105324        -0.466966         1.466512
 H        -0.693744         0.063900        -0.019103
 H        -0.178286        -1.645630        -0.103790
 H         2.170501        -0.100535         1.946971
 H         3.084801        -1.254083         1.163641
 H         4.788322         2.248778        -0.241450
 H         5.245366         1.045063         1.164943
 H         3.429990         1.038692        -2.240751
 H         1.556053        -0.235186        -2.214149
 H         2.076302        -1.626707        -1.294239
