19
Iteration:  2524charge 0 multiplicity 1
 C        -0.021657        -0.512671         0.278380
 C         1.450102        -0.149517         0.038198
 C         2.673606        -0.318093         0.953994
 C         3.083242         0.825198         0.116617
 C         4.582066         1.172445         0.265043
 O         4.725371         0.115098        -0.849307
 C         3.340499         0.334405        -1.222637
 C         2.219262        -0.611582        -1.290655
 O         1.762339         1.302385         0.166565
 H        -0.564288         0.165140         0.976543
 H        -0.655886        -0.394011        -0.649497
 H        -0.104361        -1.522768         0.576511
 H         2.403818        -0.121639         2.048394
 H         3.380869        -1.247652         0.910230
 H         4.858205         2.232791        -0.180661
 H         5.119300         0.990829         1.176673
 H         3.167499         1.175937        -2.051909
 H         1.672675        -0.642462        -2.219239
 H         2.321725        -1.716210        -1.157383
