19
Iteration:  3889charge 0 multiplicity 1
 C        -0.015158        -0.562316         0.191235
 C         1.414028        -0.115431         0.086374
 C         2.649768        -0.435752         0.967884
 C         3.143776         0.896073         0.194765
 C         4.631493         1.253734         0.080252
 O         4.736837         0.137478        -0.772079
 C         3.347462         0.259918        -1.128126
 C         2.159864        -0.673074        -1.264301
 O         1.720788         1.391107         0.123510
 H        -0.295604        -0.202874         1.205497
 H        -0.803880        -0.291617        -0.470236
 H         0.074199        -1.631071         0.200251
 H         2.387115        -0.258306         2.011073
 H         3.070958        -1.373407         0.812199
 H         4.767687         2.194586        -0.529818
 H         5.327755         1.216618         0.971777
 H         3.398466         1.011656        -1.888460
 H         1.678746        -0.332595        -2.104870
 H         2.422648        -1.782040        -1.190808
