19
Iteration:  1237charge 0 multiplicity 1
 C         0.088482        -0.531947         0.266701
 C         1.482252        -0.186152         0.004572
 C         2.649151        -0.330459         0.910669
 C         3.105484         0.954533         0.162969
 C         4.618494         1.231785         0.190032
 O         4.716601         0.072138        -0.751973
 C         3.375737         0.283132        -1.192551
 C         2.144256        -0.606923        -1.370620
 O         1.633431         1.280764         0.232146
 H        -0.341269        -0.455689         1.352337
 H        -0.540595         0.028555        -0.427712
 H        -0.073204        -1.508475         0.032286
 H         2.329929        -0.058848         1.922297
 H         3.361802        -1.134209         0.971915
 H         5.058286         2.109767        -0.455282
 H         5.202327         1.165098         1.178149
 H         3.325153         0.992575        -2.036263
 H         1.625956        -0.334613        -2.314110
 H         2.207205        -1.738305        -1.387955
