19
Iteration:  3335charge 0 multiplicity 1
 C         0.039383        -0.574733         0.387069
 C         1.390000        -0.102631         0.027706
 C         2.542649        -0.316165         1.050624
 C         3.085602         0.826096         0.166114
 C         4.596463         1.264112         0.183419
 O         4.790673         0.109692        -0.769712
 C         3.416666         0.258213        -1.180046
 C         2.131266        -0.660038        -1.389486
 O         1.792026         1.356944        -0.010094
 H        -0.197414        -0.508872         1.408565
 H        -0.677154         0.034834        -0.127803
 H         0.097516        -1.650307         0.122970
 H         2.260442         0.026865         2.074935
 H         2.934817        -1.374386         1.064227
 H         4.796246         2.346678        -0.110223
 H         5.179515         1.029969         1.009363
 H         3.413450         0.902751        -2.068920
 H         1.590614        -0.321989        -2.252792
 H         2.184322        -1.805647        -1.418499
