19
Iteration:  4585
 C        -0.016451        -0.547409         0.348682
 C         1.407283        -0.212274        -0.000092
 C         2.537922        -0.355428         1.096239
 C         3.152702         0.859121         0.219996
 C         4.634833         1.239325         0.203817
 O         4.823804         0.123630        -0.845371
 C         3.359041         0.314311        -1.139072
 C         2.084726        -0.611865        -1.392126
 O         1.780486         1.297714         0.016916
 H        -0.402971         0.200556         1.103563
 H        -0.592410        -0.289067        -0.600884
 H        -0.089939        -1.632491         0.734378
 H         2.277011         0.108932         2.043683
 H         3.192594        -1.229535         1.028670
 H         4.768971         2.103581        -0.392745
 H         5.240901         1.067990         1.154911
 H         3.351722         1.107291        -1.936455
 H         1.637636        -0.233596        -2.309538
 H         2.356259        -1.696711        -1.448355
