19
Iteration:   912
 C        -0.030130        -0.669814         0.354973
 C         1.406653        -0.157352         0.052985
 C         2.474237        -0.372721         1.002547
 C         3.122408         0.828084         0.220290
 C         4.606472         1.244781         0.177562
 O         4.863901         0.166085        -0.799292
 C         3.382408         0.392023        -1.197473
 C         2.087658        -0.565094        -1.363864
 O         1.852976         1.301603         0.027090
 H        -0.205558        -0.518273         1.405384
 H        -0.818237        -0.159646        -0.231036
 H        -0.081469        -1.699073         0.228534
 H         2.168091        -0.169353         2.041774
 H         2.921025        -1.392154         0.985636
 H         4.720134         2.210329        -0.240495
 H         5.298257         1.059252         1.003241
 H         3.290569         1.154600        -1.920301
 H         1.495528        -0.292326        -2.221396
 H         2.479226        -1.590360        -1.489530
