19
Iteration:  3765charge 0 multiplicity 1
 C        -0.031659        -0.422851         0.162488
 C         1.473946        -0.199369         0.040604
 C         2.771239        -0.325487         1.052213
 C         3.088091         0.922652         0.202499
 C         4.664427         1.253352         0.144265
 O         4.757754         0.162552        -0.811885
 C         3.306532         0.249356        -1.133739
 C         2.106037        -0.707435        -1.289042
 O         1.674542         1.230935         0.132068
 H        -0.382138         0.150871         0.977720
 H        -0.362861        -0.305802        -0.877280
 H        -0.371981        -1.470406         0.369427
 H         2.464003        -0.209526         2.031107
 H         3.327494        -1.291070         1.035894
 H         4.798948         2.228653        -0.401218
 H         5.489406         1.039033         0.939911
 H         3.182896         1.061208        -1.828670
 H         1.400213        -0.531892        -2.203159
 H         2.319581        -1.728089        -1.141283
