19
Iteration:  2522
 C        -0.029799        -0.503425         0.279181
 C         1.458446        -0.135211         0.038551
 C         2.667587        -0.332912         0.951630
 C         3.091813         0.846808         0.121689
 C         4.569929         1.175688         0.258903
 O         4.727414         0.113928        -0.846648
 C         3.342504         0.341507        -1.237154
 C         2.202455        -0.622327        -1.274808
 O         1.759244         1.294291         0.157308
 H        -0.545803         0.096708         0.972041
 H        -0.635590        -0.374028        -0.651250
 H        -0.045368        -1.572431         0.617776
 H         2.428501        -0.170574         2.033135
 H         3.367891        -1.246115         0.870242
 H         4.932839         2.197190        -0.146388
 H         5.113584         0.958418         1.188787
 H         3.212682         1.212715        -1.974073
 H         1.703097        -0.676324        -2.249648
 H         2.372604        -1.715344        -1.114912
