19
Iteration:  4272
 C        -0.007835        -0.509827         0.196481
 C         1.488914        -0.146825         0.020846
 C         2.625885        -0.342173         1.021108
 C         3.090973         0.810898         0.237630
 C         4.595873         1.241824         0.089330
 O         4.831055         0.161501        -0.817977
 C         3.347190         0.260988        -1.103868
 C         2.147279        -0.703251        -1.326416
 O         1.724748         1.336670         0.126879
 H        -0.307341         0.085132         1.039711
 H        -0.606607        -0.345481        -0.736751
 H        -0.186586        -1.538589         0.643941
 H         2.354079        -0.017399         2.050084
 H         3.229725        -1.258648         1.092144
 H         4.678947         2.258361        -0.341171
 H         5.212882         1.165789         0.980421
 H         3.143088         1.025601        -1.913791
 H         1.393971        -0.459275        -2.152665
 H         2.069352        -1.744497        -1.054002
