19
Iteration:  2129charge 0 multiplicity 1
 C         0.045197        -0.451853         0.363161
 C         1.509234        -0.173048         0.052751
 C         2.685170        -0.417022         0.965409
 C         3.060057         0.908774         0.162135
 C         4.600981         1.170440         0.251899
 O         4.781689         0.077940        -0.773717
 C         3.307659         0.386588        -1.243164
 C         2.157938        -0.651621        -1.343500
 O         1.596260         1.306274         0.061930
 H        -0.278328        -0.159399         1.326781
 H        -0.448533         0.208489        -0.424521
 H        -0.069105        -1.529783        -0.028854
 H         2.616270        -0.259526         2.053571
 H         3.578050        -0.984109         0.738025
 H         5.109325         2.142142        -0.142494
 H         5.039460         0.826509         1.106962
 H         3.307232         0.997549        -2.059600
 H         1.569380        -0.505503        -2.245447
 H         2.451971        -1.670496        -1.264892
