19
Iteration:  2554
 C         0.038987        -0.491579         0.252918
 C         1.450086        -0.243414         0.009773
 C         2.516544        -0.387226         1.122198
 C         3.072520         0.815527         0.201913
 C         4.687977         1.283123         0.079469
 O         4.866852         0.126194        -0.827745
 C         3.339012         0.316244        -1.146760
 C         2.096741        -0.575665        -1.350738
 O         1.776529         1.296735         0.141951
 H        -0.374282         0.101647         1.012256
 H        -0.568761        -0.465616        -0.684325
 H        -0.124859        -1.596648         0.503212
 H         1.917986        -0.247160         2.036766
 H         3.133323        -1.305375         0.988815
 H         4.775949         2.213437        -0.506549
 H         5.217324         1.191970         1.024830
 H         3.138604         1.128837        -1.804094
 H         1.360459        -0.212505        -2.120351
 H         2.145306        -1.698910        -1.327939
