19
Iteration:  4355
 C        -0.021019        -0.551258         0.273576
 C         1.438731        -0.212173         0.062827
 C         2.663650        -0.311917         1.006459
 C         3.135862         0.898859         0.158848
 C         4.628074         1.238553         0.112501
 O         4.758406         0.054046        -0.715669
 C         3.333905         0.334651        -1.184668
 C         2.182650        -0.635573        -1.338816
 O         1.686564         1.358103         0.069456
 H        -0.483721        -0.394768         1.276043
 H        -0.741342        -0.042144        -0.318569
 H        -0.100551        -1.584438         0.003980
 H         2.469602         0.055583         2.048524
 H         3.251918        -1.220843         0.952447
 H         4.787832         2.259287        -0.237935
 H         5.206588         1.043364         1.076164
 H         3.459836         0.928124        -2.058508
 H         1.534124        -0.566886        -2.134749
 H         2.479821        -1.722358        -1.183046
