19
Iteration:  1382charge 0 multiplicity 1
 C        -0.054056        -0.601459         0.303309
 C         1.400744        -0.163602         0.090799
 C         2.600005        -0.400328         0.989109
 C         3.118578         0.818253         0.207532
 C         4.530259         1.224549         0.188355
 O         4.801770         0.118514        -0.822389
 C         3.406630         0.314068        -1.212218
 C         2.206949        -0.583858        -1.317872
 O         1.786705         1.399182         0.109172
 H        -0.398274        -0.649525         1.306277
 H        -0.678049         0.105492        -0.432818
 H        -0.205613        -1.662313        -0.021174
 H         2.420350        -0.102038         2.002061
 H         3.181715        -1.261218         0.770882
 H         4.631516         2.265410        -0.340992
 H         5.217125         1.167006         0.956985
 H         3.435122         1.056064        -2.123170
 H         1.557727        -0.316923        -2.160409
 H         2.244683        -1.693084        -1.355879
