19
Iteration:  4232
 C         0.047890        -0.502351         0.282649
 C         1.411331        -0.156667        -0.016836
 C         2.699999        -0.300010         1.007860
 C         3.128242         0.910842         0.178327
 C         4.593571         1.191037         0.146256
 O         4.755861         0.089061        -0.753022
 C         3.395761         0.323752        -1.216353
 C         2.131953        -0.676621        -1.295967
 O         1.625492         1.294647         0.118622
 H        -0.350359        -0.134803         1.256899
 H        -0.611532        -0.167916        -0.581129
 H        -0.050364        -1.615327         0.448581
 H         2.469019         0.051703         1.980220
 H         3.259696        -1.263723         1.085276
 H         4.843518         2.163976        -0.371399
 H         5.083616         0.941734         1.062106
 H         3.477469         1.142468        -1.998704
 H         1.728116        -0.545268        -2.354245
 H         2.465935        -1.710151        -1.233678
