19
Iteration:   417
 C         0.024621        -0.552010         0.329770
 C         1.426448        -0.125524        -0.006770
 C         2.443963        -0.411234         1.028706
 C         3.169043         0.788485         0.245674
 C         4.590162         1.275050         0.107876
 O         4.846127         0.244301        -0.918745
 C         3.350207         0.213786        -1.169463
 C         2.144084        -0.679842        -1.366588
 O         1.818693         1.343457         0.231889
 H        -0.266862        -0.508688         1.347258
 H        -0.597684         0.030712        -0.430741
 H         0.045812        -1.627021        -0.057159
 H         2.046222        -0.182599         2.006838
 H         2.870128        -1.418033         1.002937
 H         4.736241         2.389478        -0.276851
 H         5.193100         1.151620         0.940669
 H         3.110605         1.149036        -1.873620
 H         1.645132        -0.317543        -2.212957
 H         2.133638        -1.691572        -1.312028
