19
Iteration:  1859
 C        -0.044018        -0.471473         0.215200
 C         1.448586        -0.157872         0.033944
 C         2.635250        -0.397544         1.010358
 C         3.115235         0.827794         0.168711
 C         4.543818         1.264599         0.196155
 O         4.863921         0.122649        -0.848657
 C         3.302704         0.354189        -1.235383
 C         2.157628        -0.703144        -1.294285
 O         1.736728         1.310011         0.206124
 H        -0.378850         0.170451         0.941542
 H        -0.638586        -0.323909        -0.726746
 H         0.008111        -1.444592         0.571357
 H         2.401899        -0.148483         2.025701
 H         3.067831        -1.360826         0.959808
 H         4.708092         2.227046        -0.204518
 H         5.168921         1.030724         1.143992
 H         3.244251         1.146259        -1.949289
 H         1.678014        -0.591430        -2.298858
 H         2.548051        -1.744546        -1.144400
