19
Iteration:  4361charge 0 multiplicity 1
 C        -0.067978        -0.578254         0.288921
 C         1.447067        -0.174579         0.038295
 C         2.674293        -0.329996         0.966274
 C         3.114974         0.945101         0.164853
 C         4.579575         1.263436         0.145490
 O         4.751702         0.017003        -0.737058
 C         3.378133         0.301221        -1.182370
 C         2.188578        -0.658470        -1.331858
 O         1.729514         1.375893         0.097892
 H        -0.386246        -0.459340         1.335772
 H        -0.766950        -0.098190        -0.491326
 H        -0.027103        -1.671524        -0.029335
 H         2.513092         0.113877         1.926298
 H         3.239402        -1.281139         1.174737
 H         4.739700         2.316864        -0.229587
 H         5.269548         1.175328         0.943665
 H         3.558598         1.065284        -2.019420
 H         1.368168        -0.503132        -2.163333
 H         2.343097        -1.684708        -1.121615
