19
Iteration:  2560
 C         0.007487        -0.525689         0.245057
 C         1.418569        -0.154899         0.001480
 C         2.530856        -0.423394         1.063528
 C         3.122615         0.793072         0.262577
 C         4.678258         1.292802         0.085486
 O         4.832832         0.129299        -0.843216
 C         3.342023         0.298530        -1.113365
 C         2.098446        -0.573085        -1.314767
 O         1.765125         1.270529         0.093782
 H        -0.356114         0.065545         1.159290
 H        -0.509804        -0.365971        -0.689515
 H        -0.046302        -1.580267         0.549323
 H         2.115053        -0.104834         2.038946
 H         3.094017        -1.354743         1.021139
 H         4.704612         2.233867        -0.484875
 H         5.323532         1.304267         1.016871
 H         3.303892         1.127736        -1.936181
 H         1.486784        -0.117190        -2.083560
 H         2.269464        -1.616768        -1.188176
