19
Iteration:   844charge 0 multiplicity 1
 C        -0.055004        -0.584928         0.257188
 C         1.451184        -0.223366        -0.004922
 C         2.639753        -0.300671         1.041974
 C         3.118321         0.831966         0.238986
 C         4.635354         1.224491         0.204593
 O         4.800151         0.116325        -0.871645
 C         3.310931         0.404890        -1.208992
 C         2.161106        -0.662849        -1.377005
 O         1.721801         1.323204         0.169981
 H        -0.486903        -0.120789         1.257386
 H        -0.642967        -0.199874        -0.528971
 H        -0.177851        -1.622661         0.285841
 H         2.505298         0.034736         2.056006
 H         3.243055        -1.212737         1.105976
 H         4.846235         2.251883        -0.144723
 H         5.141454         1.003520         1.061337
 H         3.359649         1.232335        -1.994173
 H         1.472693        -0.538118        -2.195147
 H         2.575539        -1.654722        -1.327008
