19
Iteration:  1272charge 0 multiplicity 1
 C        -0.017598        -0.563707         0.353074
 C         1.456510        -0.187344         0.060762
 C         2.644123        -0.375965         0.960199
 C         3.130329         0.818592         0.174670
 C         4.617885         1.205375         0.283766
 O         4.716359         0.162429        -0.825451
 C         3.362439         0.363969        -1.204074
 C         2.155997        -0.597473        -1.351291
 O         1.740729         1.304774         0.048254
 H        -0.487594        -0.202809         1.315190
 H        -0.679773        -0.153858        -0.509697
 H        -0.018538        -1.647692         0.206080
 H         2.288792        -0.054970         1.942818
 H         3.160642        -1.292921         0.922422
 H         4.999195         2.221278        -0.279994
 H         5.251519         0.954936         1.108625
 H         3.287003         1.246584        -1.975908
 H         1.574591        -0.368480        -2.220278
 H         2.440924        -1.656926        -1.226659
