19
Iteration:  4270charge 0 multiplicity 1
 C        -0.014033        -0.504460         0.193163
 C         1.493224        -0.179412         0.043161
 C         2.637501        -0.344837         1.026781
 C         3.103714         0.817256         0.247928
 C         4.581792         1.250453         0.081230
 O         4.818975         0.148169        -0.818975
 C         3.357160         0.286567        -1.106532
 C         2.126992        -0.705964        -1.342323
 O         1.720874         1.343583         0.118845
 H        -0.321417         0.121782         1.021764
 H        -0.584518        -0.361834        -0.703765
 H        -0.149975        -1.506798         0.593957
 H         2.357297         0.006665         2.081251
 H         3.209050        -1.263609         1.109122
 H         4.721883         2.268544        -0.323767
 H         5.233974         1.169853         1.031800
 H         3.226647         1.001607        -1.901286
 H         1.465509        -0.447801        -2.177922
 H         2.099292        -1.810472        -1.078720
