19
Iteration:  3488
 C        -0.007374        -0.513889         0.382082
 C         1.401855        -0.094567        -0.027690
 C         2.629367        -0.354065         0.947551
 C         3.141068         0.896293         0.141035
 C         4.622498         1.253189         0.173719
 O         4.754149         0.061499        -0.681197
 C         3.340452         0.330724        -1.236044
 C         2.242832        -0.726830        -1.403896
 O         1.645580         1.328662         0.108357
 H        -0.078105        -0.249511         1.457693
 H        -0.762673        -0.055307        -0.272470
 H        -0.208615        -1.593050         0.182925
 H         2.397878         0.126091         1.944595
 H         3.312010        -1.219755         0.974131
 H         4.955648         2.258433        -0.231623
 H         5.141440         0.896307         0.983981
 H         3.325462         1.033245        -2.019054
 H         1.887554        -0.703167        -2.417010
 H         2.506240        -1.743452        -0.985416
