19
Iteration:  4543charge 0 multiplicity 1
 C        -0.043159        -0.563867         0.344356
 C         1.418301        -0.143982         0.031699
 C         2.634113        -0.279018         0.941854
 C         3.102711         0.876086         0.149075
 C         4.598938         1.239830         0.221256
 O         4.787142         0.097233        -0.776382
 C         3.363118         0.311318        -1.236351
 C         2.160027        -0.709722        -1.305845
 O         1.755438         1.371502         0.076072
 H        -0.287825        -0.309663         1.373964
 H        -0.736666         0.069972        -0.289521
 H        -0.108034        -1.688448         0.023291
 H         2.276138        -0.151351         1.942637
 H         3.158276        -1.251515         0.720730
 H         5.039379         2.205204         0.009812
 H         5.147944         0.791613         1.145725
 H         3.403332         1.126887        -1.983296
 H         1.469508        -0.859300        -2.192924
 H         2.475566        -1.713324        -1.126513
