19
Iteration:   390charge 0 multiplicity 1
 C        -0.056524        -0.497234         0.244859
 C         1.456753        -0.212679         0.055433
 C         2.767938        -0.414714         0.954420
 C         3.143401         0.823959         0.156202
 C         4.555774         1.272034         0.122845
 O         4.767999         0.104857        -0.758096
 C         3.271448         0.353715        -1.214514
 C         2.143214        -0.560305        -1.287849
 O         1.745754         1.266435         0.170844
 H        -0.410848        -0.312094         1.331719
 H        -0.490699         0.142445        -0.471487
 H        -0.340823        -1.513981         0.023213
 H         2.671756        -0.119980         2.043004
 H         3.314738        -1.380140         0.869214
 H         4.697853         2.209109        -0.363225
 H         5.166881         1.315043         1.131467
 H         3.215930         1.106212        -1.897816
 H         1.475169        -0.357482        -2.215177
 H         2.423819        -1.729005        -1.255478
