19
Iteration:  2044
 C        -0.032944        -0.480164         0.222066
 C         1.466344        -0.202275         0.058294
 C         2.660853        -0.371209         1.033702
 C         3.099120         0.828453         0.156767
 C         4.640323         1.198066         0.187903
 O         4.772246         0.146577        -0.828420
 C         3.280122         0.395345        -1.227954
 C         2.179804        -0.702805        -1.334535
 O         1.700661         1.311879         0.171643
 H        -0.418935         0.089031         0.974997
 H        -0.666122        -0.178699        -0.685472
 H        -0.363789        -1.422487         0.499473
 H         2.709929         0.093221         2.013225
 H         3.240215        -1.223634         0.966063
 H         5.110312         2.166119        -0.019924
 H         5.077787         0.786102         1.115184
 H         3.326591         1.301511        -1.944214
 H         1.544003        -0.721394        -2.267509
 H         2.673710        -1.729172        -1.125531
