19
Iteration:  4280charge 0 multiplicity 1
 C         0.027091        -0.529011         0.238823
 C         1.401863        -0.062391        -0.052386
 C         2.568592        -0.361703         1.024264
 C         3.114312         0.809482         0.191359
 C         4.615073         1.243138         0.141294
 O         4.850960         0.206815        -0.836631
 C         3.319101         0.173868        -1.183679
 C         2.165959        -0.676213        -1.224740
 O         1.742617         1.319034         0.150864
 H        -0.428713         0.119454         1.003272
 H        -0.604592        -0.315098        -0.585327
 H        -0.099274        -1.557130         0.486786
 H         2.228273        -0.077774         2.086895
 H         3.198725        -1.240121         0.907200
 H         4.619896         2.191367        -0.424721
 H         5.348815         1.157620         1.067781
 H         3.173386         1.020136        -1.792569
 H         1.585920        -0.567978        -2.129487
 H         2.268526        -1.826480        -1.094411
