19
Iteration:  1946
 C         0.034789        -0.566883         0.225512
 C         1.451621        -0.217730         0.000827
 C         2.782943        -0.349459         0.963609
 C         3.088452         0.909711         0.160060
 C         4.606633         1.238283         0.196144
 O         4.730128         0.041504        -0.747625
 C         3.337833         0.356632        -1.205620
 C         2.099329        -0.635138        -1.286465
 O         1.658035         1.397003         0.145223
 H        -0.305897        -0.380075         1.133246
 H        -0.668723         0.088239        -0.355069
 H        -0.246403        -1.488047        -0.050908
 H         2.509039        -0.246087         2.001994
 H         3.445544        -1.165138         0.875157
 H         4.967417         2.091012        -0.284611
 H         5.163774         0.878985         1.096617
 H         3.264449         1.206071        -1.977444
 H         1.667394        -0.679124        -2.330053
 H         2.495595        -1.662755        -0.943176
