19
Iteration:  4460
 C         0.009876        -0.477800         0.262507
 C         1.382345        -0.097381         0.000489
 C         2.617921        -0.407845         0.977197
 C         3.090793         0.802940         0.155934
 C         4.594159         1.226111         0.252254
 O         4.826165         0.171337        -0.868615
 C         3.327931         0.308368        -1.169418
 C         2.152666        -0.760602        -1.251375
 O         1.767775         1.378192         0.098991
 H        -0.278683        -0.001156         1.198602
 H        -0.665544        -0.276581        -0.575826
 H        -0.027817        -1.529886         0.528432
 H         2.228136        -0.114658         1.926871
 H         3.037268        -1.394975         1.173439
 H         4.843317         2.256526        -0.223023
 H         5.213582         1.046875         1.086620
 H         3.256012         0.995029        -2.040936
 H         1.623717        -0.621066        -2.243661
 H         2.487784        -1.791715        -1.078081
