19
Iteration:  2320charge 0 multiplicity 1
 C        -0.030289        -0.539752         0.248984
 C         1.490834        -0.198435         0.057276
 C         2.732332        -0.314692         0.978970
 C         3.080758         0.929828         0.198280
 C         4.607973         1.233855         0.173850
 O         4.684506         0.018426        -0.818611
 C         3.347467         0.320250        -1.169921
 C         2.212496        -0.622268        -1.281368
 O         1.668457         1.330504         0.133823
 H        -0.201209         0.115350         1.187088
 H        -0.595539        -0.104066        -0.609296
 H        -0.166692        -1.608120         0.184716
 H         2.529782        -0.140654         2.022360
 H         3.324721        -1.174234         0.767818
 H         5.014740         2.123440        -0.338113
 H         5.245108         0.861571         1.028837
 H         3.274436         1.102039        -1.907351
 H         1.634758        -0.200929        -2.201016
 H         2.314520        -1.783719        -1.472826
