19
Iteration:  3668charge 0 multiplicity 1
 C        -0.009702        -0.537412         0.317390
 C         1.445554        -0.175087         0.061265
 C         2.666607        -0.280741         1.011752
 C         3.073407         0.893695         0.131948
 C         4.639131         1.251131         0.163453
 O         4.720466         0.037793        -0.715048
 C         3.310225         0.344897        -1.253902
 C         2.267174        -0.659421        -1.408929
 O         1.668981         1.306280         0.131177
 H        -0.250708        -0.219880         1.314677
 H        -0.560856         0.011025        -0.491867
 H        -0.281086        -1.623466         0.296577
 H         2.597042         0.067898         1.974326
 H         3.269307        -1.262961         1.154386
 H         4.915608         2.132491        -0.366674
 H         5.190636         1.106247         1.184918
 H         3.419476         1.038712        -2.119528
 H         1.661108        -0.594204        -2.410290
 H         2.420949        -1.725039        -1.294423
