19
Iteration:  2787
 C        -0.000773        -0.501897         0.244678
 C         1.489373        -0.188412         0.126424
 C         2.657590        -0.293248         1.075029
 C         3.115939         0.870131         0.164346
 C         4.567043         1.239452         0.129018
 O         4.778682         0.075093        -0.757377
 C         3.348355         0.299102        -1.245834
 C         2.192363        -0.635079        -1.354484
 O         1.657360         1.286320         0.128374
 H        -0.356810        -0.151161         1.299979
 H        -0.446281         0.079207        -0.591045
 H         0.032075        -1.506811        -0.103313
 H         2.495845         0.146368         2.070584
 H         3.025850        -1.321786         1.057381
 H         4.892074         2.135690        -0.420176
 H         5.101400         1.040121         0.986613
 H         3.385157         0.980117        -2.045989
 H         1.451927        -0.466984        -2.168683
 H         2.328803        -1.718976        -1.511501
