19
Iteration:  4760charge 0 multiplicity 1
 C        -0.057510        -0.529189         0.288272
 C         1.412292        -0.126957         0.068453
 C         2.570273        -0.426350         1.048277
 C         3.107269         0.782780         0.238395
 C         4.572908         1.258862         0.075087
 O         4.787944         0.100864        -0.788279
 C         3.415461         0.338040        -1.165413
 C         2.197371        -0.644587        -1.371920
 O         1.756914         1.366182         0.114168
 H        -0.465282        -0.121469         1.129811
 H        -0.596443        -0.252376        -0.656493
 H         0.046024        -1.626014         0.350433
 H         2.358242         0.092695         1.966059
 H         3.085384        -1.449562         1.164540
 H         4.668711         2.285684        -0.418521
 H         5.367430         1.234842         0.933207
 H         3.447316         1.178186        -1.904180
 H         1.571411        -0.466194        -2.292292
 H         2.509130        -1.698867        -1.482899
