19
Iteration:  4238charge 0 multiplicity 1
 C        -0.003771        -0.514952         0.239281
 C         1.488540        -0.202158         0.074832
 C         2.680143        -0.312702         1.006730
 C         3.129226         0.878848         0.173240
 C         4.576636         1.205730         0.110038
 O         4.728766         0.078692        -0.741350
 C         3.365055         0.378830        -1.223893
 C         2.192264        -0.644039        -1.306959
 O         1.657808         1.270290         0.104060
 H        -0.207387         0.092966         1.129154
 H        -0.707985        -0.149993        -0.502225
 H        -0.158780        -1.581662         0.446434
 H         2.436699         0.229744         1.984386
 H         3.218311        -1.250707         1.061958
 H         4.893169         2.142589        -0.323643
 H         5.096340         1.023218         1.092692
 H         3.519446         1.121957        -2.024760
 H         1.614218        -0.466497        -2.236017
 H         2.297687        -1.742633        -1.137244
