19
Iteration:   799
 C        -0.047437        -0.516021         0.324840
 C         1.406484        -0.193633         0.026028
 C         2.606025        -0.415521         0.980594
 C         3.134859         0.740494         0.231612
 C         4.572126         1.205842         0.240980
 O         4.846263         0.302956        -0.892515
 C         3.323685         0.330290        -1.188635
 C         2.067202        -0.722799        -1.339456
 O         1.874344         1.341576         0.058903
 H        -0.482435        -0.058071         1.279782
 H        -0.618546        -0.174130        -0.515220
 H        -0.104621        -1.624117         0.436236
 H         2.154774        -0.127539         1.936168
 H         3.150117        -1.316908         1.188493
 H         4.603670         2.288945        -0.104061
 H         5.139353         1.077673         1.116891
 H         3.217798         1.366934        -1.659210
 H         1.604028        -0.680894        -2.344665
 H         2.386507        -1.723701        -1.142726
