19
Iteration:  4930charge 0 multiplicity 1
 C        -0.012699        -0.455634         0.356897
 C         1.460542        -0.165694         0.023086
 C         2.563648        -0.391029         0.971753
 C         3.020932         0.769468         0.140016
 C         4.637067         1.164958         0.230703
 O         4.780632         0.148873        -0.823146
 C         3.351099         0.370604        -1.205320
 C         2.264836        -0.685683        -1.348781
 O         1.693749         1.357392         0.065126
 H        -0.153441        -0.116596         1.394934
 H        -0.706255        -0.022309        -0.307563
 H        -0.221021        -1.445804         0.305135
 H         2.217633        -0.010167         1.974824
 H         3.102754        -1.231780         1.238248
 H         5.009174         2.113099        -0.288556
 H         5.117323         1.030673         1.229076
 H         3.333186         1.216684        -1.963326
 H         1.797778        -0.807276        -2.251658
 H         2.810832        -1.628679        -1.057013
