19
Iteration:  3385
 C         0.015668        -0.462058         0.226674
 C         1.471874        -0.146238         0.064256
 C         2.664787        -0.384991         0.994749
 C         3.118325         0.839923         0.166820
 C         4.627026         1.274757         0.184301
 O         4.679646         0.114643        -0.810833
 C         3.296335         0.277237        -1.147736
 C         2.263401        -0.724037        -1.280070
 O         1.690350         1.355656         0.075557
 H        -0.375212         0.160566         1.080178
 H        -0.522467        -0.038416        -0.671497
 H        -0.075635        -1.543548         0.421508
 H         2.392361        -0.304959         2.030556
 H         3.233171        -1.339960         1.030274
 H         4.995779         2.093815        -0.419942
 H         5.028002         1.204131         1.323834
 H         3.123229         1.015284        -1.946735
 H         1.618650        -0.639912        -2.207896
 H         2.497551        -1.743834        -1.211483
