19
Iteration:  2470
 C        -0.021095        -0.574131         0.322736
 C         1.483125        -0.149326         0.020031
 C         2.568966        -0.363544         1.179577
 C         3.071368         0.797920         0.149459
 C         4.596624         1.228746         0.161153
 O         4.860401         0.078427        -0.833677
 C         3.307566         0.327087        -1.206037
 C         2.150309        -0.552501        -1.418499
 O         1.757257         1.310884         0.059585
 H        -0.242913        -0.590656         1.455312
 H        -0.746985         0.084124        -0.265134
 H         0.070701        -1.598544         0.165980
 H         2.256604         0.295879         2.049499
 H         3.052802        -1.400526         1.368969
 H         4.813951         2.288539        -0.286845
 H         5.093710         1.169019         1.102166
 H         3.497300         1.264154        -1.879834
 H         1.463690        -0.177290        -2.149583
 H         2.306779        -1.658523        -1.508746
