19
Iteration:  3897charge 0 multiplicity 1
 C        -0.017869        -0.566723         0.232277
 C         1.406747        -0.081374         0.014174
 C         2.569667        -0.408658         1.003674
 C         3.178094         0.817287         0.291672
 C         4.600575         1.302698         0.063228
 O         4.760541         0.117964        -0.793551
 C         3.343518         0.333279        -1.130033
 C         2.155969        -0.657120        -1.274558
 O         1.781008         1.331866         0.113224
 H        -0.504158        -0.291975         1.204595
 H        -0.750562        -0.191144        -0.598151
 H         0.145159        -1.688801         0.280208
 H         2.509016        -0.123083         2.017433
 H         3.051161        -1.456569         0.859761
 H         4.740349         2.212878        -0.534217
 H         5.379830         1.365221         0.944270
 H         3.333839         0.934392        -2.052185
 H         1.496337        -0.611544        -2.211615
 H         2.421407        -1.733375        -1.251535
