19
Iteration:  2032charge 0 multiplicity 1
 C        -0.000717        -0.415352         0.263074
 C         1.434071        -0.193615         0.055166
 C         2.683630        -0.356977         0.962956
 C         3.078697         0.826999         0.119257
 C         4.528935         1.111265         0.267980
 O         4.750856         0.158523        -0.870885
 C         3.342635         0.378517        -1.293599
 C         2.267265        -0.657692        -1.244044
 O         1.685638         1.286702         0.198978
 H        -0.246329         0.279819         0.951693
 H        -0.427182        -0.231374        -0.770900
 H        -0.071513        -1.462572         0.561765
 H         2.446831        -0.050715         1.995996
 H         3.248992        -1.226624         0.896958
 H         4.828220         2.131192        -0.104079
 H         5.001880         0.881060         1.200835
 H         3.237994         1.150083        -2.118023
 H         1.617911        -0.724574        -2.160996
 H         2.687586        -1.706182        -1.098445
