19
Iteration:   375charge 0 multiplicity 1
 C         0.038810        -0.460161         0.266838
 C         1.489049        -0.224024         0.106303
 C         2.747697        -0.404821         0.927159
 C         3.073792         0.966562         0.187940
 C         4.670997         1.272996         0.166868
 O         4.688025         0.115575        -0.775128
 C         3.366247         0.344937        -1.208115
 C         2.099178        -0.701482        -1.349840
 O         1.609401         1.237555         0.189428
 H        -0.408964        -0.077415         1.242490
 H        -0.494313         0.204664        -0.534957
 H        -0.133669        -1.520681         0.045799
 H         2.567276        -0.332985         1.979863
 H         3.487557        -1.147406         0.641646
 H         5.142335         2.163372        -0.312858
 H         5.214368         0.946925         1.040799
 H         3.520232         1.148941        -2.077447
 H         1.501833        -0.361292        -2.171067
 H         2.332857        -1.724018        -1.467057
