19
Iteration:  2208charge 0 multiplicity 1
 C         0.001420        -0.510951         0.168523
 C         1.456290        -0.195864         0.085065
 C         2.633160        -0.351779         1.067944
 C         3.129953         0.849690         0.247681
 C         4.579285         1.200749         0.167686
 O         4.757968         0.120500        -0.879892
 C         3.356760         0.347893        -1.203321
 C         2.110299        -0.672709        -1.317028
 O         1.763346         1.347614         0.183273
 H        -0.530915         0.088425         0.963952
 H        -0.547161        -0.266954        -0.837563
 H        -0.141681        -1.593830         0.386862
 H         2.478765        -0.078337         2.115062
 H         3.151185        -1.287433         0.915312
 H         4.920119         2.104451        -0.413611
 H         5.264518         1.063191         1.033426
 H         3.320301         1.122573        -1.925297
 H         1.394653        -0.394539        -2.144047
 H         2.470774        -1.769532        -1.368946
