19
Iteration:     4charge 0 multiplicity 1
 C         0.038043        -0.534679         0.313732
 C         1.468941        -0.142236         0.046405
 C         2.617009        -0.378956         0.982189
 C         3.109567         0.836923         0.211236
 C         4.612564         1.225214         0.173451
 O         4.749912         0.159627        -0.845380
 C         3.342893         0.306242        -1.208398
 C         2.136121        -0.652229        -1.322504
 O         1.744739         1.310588         0.156373
 H        -0.328838        -0.240034         1.255981
 H        -0.690262        -0.077754        -0.521761
 H        -0.067976        -1.669734         0.223841
 H         2.221874        -0.060343         1.952804
 H         3.188487        -1.266819         0.889798
 H         4.778939         2.221761        -0.315258
 H         5.231798         1.076506         1.009645
 H         3.242943         1.200074        -1.993309
 H         1.593535        -0.357706        -2.291524
 H         2.342479        -1.790870        -1.362349
