19
Iteration:   800
 C        -0.041069        -0.519744         0.325176
 C         1.402556        -0.188453         0.023989
 C         2.598383        -0.418493         0.983569
 C         3.147660         0.736144         0.235490
 C         4.567934         1.214238         0.247946
 O         4.852562         0.302583        -0.896430
 C         3.324211         0.338737        -1.183886
 C         2.059683        -0.728688        -1.341954
 O         1.872333         1.345761         0.052712
 H        -0.493890        -0.062007         1.290248
 H        -0.611822        -0.211654        -0.492942
 H        -0.076141        -1.572176         0.412719
 H         2.141660        -0.129866         1.933525
 H         3.146073        -1.343674         1.163218
 H         4.606142         2.243798        -0.094265
 H         5.149508         1.067748         1.065606
 H         3.205994         1.335553        -1.641753
 H         1.593943        -0.696778        -2.328459
 H         2.363840        -1.723916        -1.126979
