19
Iteration:  1381
 C        -0.062661        -0.600862         0.297456
 C         1.411223        -0.162173         0.089202
 C         2.602975        -0.409435         0.994503
 C         3.116125         0.820139         0.206228
 C         4.526049         1.235829         0.176974
 O         4.793314         0.119612        -0.820566
 C         3.414295         0.316629        -1.220955
 C         2.202501        -0.579663        -1.313556
 O         1.783287         1.394478         0.115612
 H        -0.411531        -0.627742         1.332286
 H        -0.665881         0.108979        -0.460027
 H        -0.184800        -1.616677        -0.013390
 H         2.418829        -0.089002         2.025970
 H         3.218091        -1.269413         0.792570
 H         4.661949         2.229830        -0.296330
 H         5.236773         1.114476         0.962879
 H         3.465413         1.016837        -2.112467
 H         1.566542        -0.339572        -2.188493
 H         2.272730        -1.714622        -1.344051
