19
Iteration:   522charge 0 multiplicity 1
 C         0.010310        -0.634167         0.355967
 C         1.410970        -0.121936        -0.005858
 C         2.565677        -0.421109         0.983139
 C         3.141427         0.800827         0.312141
 C         4.534920         1.297392         0.130550
 O         4.874762         0.120906        -0.775997
 C         3.369922         0.280369        -1.224497
 C         2.059272        -0.482274        -1.460661
 O         1.819758         1.294621         0.172707
 H        -0.236912        -0.231717         1.350159
 H        -0.736014        -0.304495        -0.352894
 H         0.176588        -1.768096         0.287246
 H         2.091084        -0.170108         1.964846
 H         3.060819        -1.397682         1.050683
 H         4.487434         2.184627        -0.419592
 H         5.260600         1.425201         0.999452
 H         3.541568         1.028997        -2.004372
 H         1.450555         0.037740        -2.286411
 H         2.016812        -1.602217        -1.846744
