19
Iteration:  2052charge 0 multiplicity 1
 C        -0.099732        -0.500755         0.221046
 C         1.495257        -0.198309         0.050164
 C         2.668394        -0.382250         1.059666
 C         3.155911         0.912781         0.179344
 C         4.676968         1.182756         0.191960
 O         4.764709         0.160460        -0.836155
 C         3.303275         0.354808        -1.186088
 C         2.142838        -0.687590        -1.355367
 O         1.712712         1.318478         0.139797
 H        -0.489782        -0.002767         1.122232
 H        -0.544247        -0.185317        -0.703126
 H        -0.250987        -1.636646         0.443526
 H         2.250401        -0.108607         2.051668
 H         3.182509        -1.361337         1.027161
 H         5.007371         2.226712        -0.165454
 H         5.249244         0.957081         1.015166
 H         3.171901         1.083638        -1.919449
 H         1.511533        -0.628777        -2.245000
 H         2.486755        -1.699512        -1.240514
