19
Iteration:  1275charge 0 multiplicity 1
 C        -0.022764        -0.555426         0.358518
 C         1.454232        -0.167259         0.034776
 C         2.630485        -0.356743         0.960744
 C         3.115070         0.811583         0.182269
 C         4.620999         1.227408         0.265829
 O         4.724707         0.169591        -0.847224
 C         3.360935         0.339714        -1.178616
 C         2.159438        -0.614826        -1.334236
 O         1.756841         1.301800         0.060028
 H        -0.404123        -0.198417         1.258369
 H        -0.663263        -0.183734        -0.492201
 H         0.091579        -1.742727         0.202690
 H         2.213702        -0.124911         1.938700
 H         3.097228        -1.360842         0.883190
 H         4.973376         2.220181        -0.132656
 H         5.196185         0.895892         1.103542
 H         3.309690         1.188242        -1.943813
 H         1.582799        -0.314179        -2.199841
 H         2.404151        -1.651114        -1.321785
