19
Iteration:  2882charge 0 multiplicity 1
 C         0.003497        -0.489949         0.242369
 C         1.534368        -0.158725         0.061667
 C         2.592476        -0.391961         1.091676
 C         3.071079         0.870383         0.213796
 C         4.643989         1.181093         0.151899
 O         4.760027         0.138136        -0.879209
 C         3.392345         0.289790        -1.144169
 C         2.207318        -0.620885        -1.268474
 O         1.637321         1.316866         0.042929
 H        -0.343927         0.215064         1.001241
 H        -0.580206        -0.431639        -0.711284
 H        -0.171435        -1.509398         0.547179
 H         2.281858         0.043362         2.102230
 H         3.241099        -1.274502         1.063983
 H         4.828277         2.221641        -0.304691
 H         5.197120         0.924968         1.079176
 H         3.190306         1.049751        -1.999989
 H         1.472939        -0.466543        -2.061428
 H         2.512362        -1.728110        -1.349877
