19
Iteration:  3886charge 0 multiplicity 1
 C         0.000784        -0.555874         0.204550
 C         1.436398        -0.131641         0.089535
 C         2.661995        -0.412515         0.971464
 C         3.099830         0.908588         0.155307
 C         4.644600         1.250359         0.091422
 O         4.749084         0.124572        -0.766075
 C         3.346486         0.237881        -1.149228
 C         2.164788        -0.673728        -1.251310
 O         1.698982         1.408481         0.134791
 H        -0.265735        -0.210254         1.231185
 H        -0.819308        -0.275367        -0.582024
 H        -0.042548        -1.701858         0.169548
 H         2.372223        -0.331974         1.978974
 H         3.199505        -1.435442         0.795737
 H         4.749516         2.193443        -0.477187
 H         5.336583         1.137294         1.044613
 H         3.327970         1.102829        -1.843289
 H         1.690939        -0.247934        -2.199651
 H         2.348892        -1.749704        -1.180914
