19
Iteration:  4667
 C        -0.016450        -0.502768         0.311305
 C         1.434395        -0.111134         0.001412
 C         2.551737        -0.400328         1.071146
 C         3.178080         0.784843         0.222890
 C         4.617222         1.261552         0.155701
 O         4.825663         0.107990        -0.865569
 C         3.383196         0.319451        -1.128198
 C         2.130048        -0.661133        -1.308176
 O         1.674991         1.327045         0.010664
 H        -0.225298        -0.237831         1.419855
 H        -0.741457        -0.107805        -0.383351
 H         0.049527        -1.621627         0.168935
 H         2.176024         0.028668         2.112976
 H         3.135972        -1.275914         1.357718
 H         4.944968         2.299867        -0.181087
 H         5.279276         1.030303         0.948665
 H         3.335236         1.180954        -1.796200
 H         1.601423        -0.321837        -2.244696
 H         2.421017        -1.741171        -1.470311
