19
Iteration:  1593
 C         0.008576        -0.624321         0.314541
 C         1.425807        -0.133433        -0.007809
 C         2.507345        -0.383031         1.046669
 C         3.142975         0.798761         0.188859
 C         4.571122         1.314431         0.134846
 O         4.858328         0.065805        -0.767555
 C         3.432923         0.273734        -1.185099
 C         2.061649        -0.506249        -1.386720
 O         1.776632         1.344303         0.130569
 H        -0.173084        -0.767093         1.471646
 H        -0.782244        -0.077857        -0.219450
 H         0.153599        -1.751125        -0.112728
 H         2.140601        -0.086416         2.038918
 H         3.006337        -1.347603         1.072639
 H         4.717151         2.320592        -0.517736
 H         5.269290         1.233769         0.923474
 H         3.523243         1.220236        -1.873774
 H         1.445168        -0.091119        -2.261813
 H         2.067996        -1.612870        -1.416809
