19
Iteration:  1616charge 0 multiplicity 1
 C        -0.050431        -0.608876         0.288774
 C         1.436234        -0.217310        -0.004714
 C         2.633297        -0.378782         0.921528
 C         3.159839         0.870275         0.185264
 C         4.635978         1.226282         0.183638
 O         4.783468         0.123924        -0.745308
 C         3.320086         0.295161        -1.195980
 C         2.134638        -0.610809        -1.347960
 O         1.720026         1.423571         0.161840
 H        -0.344087        -0.308463         1.405452
 H        -0.635647        -0.064843        -0.470828
 H        -0.164361        -1.813658         0.186585
 H         2.521807        -0.064966         1.966480
 H         3.166015        -1.329124         0.847272
 H         5.009019         2.257147        -0.294976
 H         5.254234         0.989054         1.056562
 H         3.455988         1.142026        -1.979571
 H         1.474882        -0.274863        -2.199720
 H         2.296044        -1.718911        -1.371805
