19
Iteration:   645charge 0 multiplicity 1
 C        -0.030252        -0.488077         0.231015
 C         1.464453        -0.166476         0.054517
 C         2.604275        -0.506204         0.933530
 C         3.157675         0.797722         0.195872
 C         4.574339         1.330424         0.142234
 O         4.808434         0.211697        -0.860767
 C         3.327611         0.296143        -1.140757
 C         2.143548        -0.671350        -1.338691
 O         1.775546         1.305134         0.259082
 H        -0.384008         0.170817         0.922296
 H        -0.508667        -0.192941        -0.736853
 H        -0.260150        -1.572072         0.516739
 H         2.405809        -0.155938         1.957776
 H         3.107717        -1.473963         0.833108
 H         4.785015         2.322675        -0.269132
 H         5.118903         1.118638         0.985397
 H         3.220677         1.110077        -1.843661
 H         1.407547        -0.412893        -2.181632
 H         2.197052        -1.807828        -1.311508
