19
Iteration:   582charge 0 multiplicity 1
 C         0.027509        -0.556563         0.232466
 C         1.495800        -0.213125         0.012063
 C         2.686533        -0.392641         1.007822
 C         3.072849         0.857795         0.233709
 C         4.607747         1.097510         0.228844
 O         4.719399         0.175141        -0.886307
 C         3.310260         0.434715        -1.288686
 C         2.224442        -0.681410        -1.353258
 O         1.650863         1.409314         0.234803
 H        -0.164736        -0.332831         1.357537
 H        -0.621511         0.135541        -0.312724
 H        -0.378195        -1.519301         0.089000
 H         2.417280        -0.118864         2.039782
 H         3.363309        -1.258189         1.018001
 H         5.061774         2.099287        -0.105128
 H         5.136223         0.684475         1.088970
 H         3.230798         1.189558        -2.097666
 H         1.615146        -0.688388        -2.237367
 H         2.635725        -1.611175        -1.120358
