19
Iteration:  4455
 C         0.051906        -0.471222         0.261824
 C         1.428888        -0.096498        -0.028890
 C         2.609058        -0.365542         0.949047
 C         3.116830         0.800752         0.175238
 C         4.581795         1.238542         0.257431
 O         4.789753         0.170432        -0.832624
 C         3.303349         0.285942        -1.220920
 C         2.148498        -0.737476        -1.269117
 O         1.753357         1.334721         0.109689
 H        -0.207551         0.140976         1.159812
 H        -0.767959        -0.310168        -0.459574
 H        -0.171000        -1.517789         0.599560
 H         2.263361        -0.042699         1.972388
 H         2.994512        -1.391372         1.168543
 H         4.911194         2.267996         0.041786
 H         5.394398         0.917247         1.033296
 H         3.166006         0.948528        -2.069375
 H         1.557672        -0.762812        -2.208018
 H         2.613810        -1.700530        -1.000014
