19
Iteration:  2149charge 0 multiplicity 1
 C        -0.009089        -0.490880         0.329953
 C         1.491694        -0.223808        -0.001463
 C         2.654908        -0.340459         0.977676
 C         3.112689         0.813736         0.175675
 C         4.607338         1.167298         0.254103
 O         4.726998         0.148301        -0.819189
 C         3.343777         0.381536        -1.215772
 C         2.147981        -0.619546        -1.333876
 O         1.719524         1.283320         0.076365
 H        -0.021623        -0.018681         1.333848
 H        -0.582850         0.022354        -0.404433
 H        -0.272486        -1.641717         0.460322
 H         2.338980         0.152707         1.943279
 H         3.074275        -1.398386         1.138636
 H         5.058331         2.106275        -0.230473
 H         5.069541         1.022039         1.256282
 H         3.289853         1.128720        -2.041822
 H         1.586822        -0.452652        -2.217796
 H         2.448222        -1.601827        -1.418781
