19
Iteration:  3496charge 0 multiplicity 1
 C        -0.010373        -0.516989         0.347934
 C         1.445456        -0.185850        -0.029848
 C         2.619318        -0.317204         0.947399
 C         3.116737         0.859865         0.168760
 C         4.616904         1.217619         0.121661
 O         4.799935         0.080011        -0.673738
 C         3.340814         0.312232        -1.201322
 C         2.203484        -0.659654        -1.362351
 O         1.664153         1.359197         0.066805
 H        -0.204530        -0.329171         1.374132
 H        -0.830770         0.039504        -0.109825
 H        -0.138891        -1.637352         0.270088
 H         2.441583        -0.041858         1.928853
 H         3.216771        -1.242816         0.761120
 H         4.896651         2.254121        -0.266755
 H         5.096433         1.154247         1.188658
 H         3.433052         1.074673        -1.964221
 H         1.497532        -0.674061        -2.145318
 H         2.504469        -1.662709        -1.062210
