19
Iteration:  1947
 C         0.039475        -0.574572         0.223325
 C         1.447552        -0.215659        -0.002599
 C         2.774823        -0.341114         0.952806
 C         3.090314         0.904305         0.174946
 C         4.603606         1.238993         0.188030
 O         4.735040         0.044243        -0.744587
 C         3.336382         0.361625        -1.205870
 C         2.097154        -0.638328        -1.291169
 O         1.666350         1.393913         0.147894
 H        -0.320421        -0.345848         1.155716
 H        -0.661075         0.115357        -0.353416
 H        -0.215311        -1.501394        -0.045677
 H         2.517072        -0.216595         1.996773
 H         3.437507        -1.167073         0.935915
 H         4.904032         2.076794        -0.296375
 H         5.186330         0.855014         1.116823
 H         3.265610         1.150560        -1.989596
 H         1.644579        -0.650794        -2.309782
 H         2.470389        -1.665406        -0.961301
