19
Iteration:  1879charge 0 multiplicity 1
 C        -0.029150        -0.526540         0.327281
 C         1.408360        -0.116664         0.024551
 C         2.503701        -0.436690         1.003111
 C         3.138227         0.706079         0.235228
 C         4.650142         1.238851         0.147696
 O         4.798738         0.268304        -0.838367
 C         3.436962         0.237198        -1.143475
 C         2.157863        -0.636260        -1.319709
 O         1.770374         1.356908         0.058332
 H        -0.513398        -0.074018         1.150957
 H        -0.561093        -0.224570        -0.557612
 H         0.005381        -1.637605         0.354606
 H         2.257684        -0.214340         2.033384
 H         3.050291        -1.380267         0.933133
 H         4.518606         2.269618        -0.267709
 H         5.335515         1.110665         0.989993
 H         3.186592         1.123557        -1.875674
 H         1.519387        -0.301595        -2.273265
 H         2.235511        -1.781329        -1.131294
