19
Iteration:  4859charge 0 multiplicity 1
 C        -0.042144        -0.559909         0.265767
 C         1.446771        -0.143262        -0.065640
 C         2.580152        -0.376356         1.005040
 C         3.121893         0.818484         0.214471
 C         4.571769         1.318535         0.072071
 O         4.767561         0.060255        -0.782247
 C         3.409109         0.270103        -1.097639
 C         2.144169        -0.650152        -1.328549
 O         1.783143         1.412323         0.184158
 H        -0.295037        -0.447079         1.280430
 H        -0.740580        -0.157044        -0.481851
 H         0.017023        -1.660890        -0.008637
 H         2.460049        -0.072871         1.992070
 H         3.092702        -1.394113         1.076175
 H         4.716949         2.231621        -0.531240
 H         5.285038         1.278704         0.935239
 H         3.351434         1.121618        -1.828932
 H         1.711490        -0.404131        -2.369498
 H         2.137336        -1.702764        -1.102946
