19
Iteration:  4477charge 0 multiplicity 1
 C        -0.067244        -0.537381         0.250663
 C         1.452608        -0.166380         0.075141
 C         2.518432        -0.323577         1.066742
 C         3.141222         0.801672         0.265229
 C         4.554338         1.242916         0.083313
 O         4.851319         0.171451        -0.844856
 C         3.420174         0.198637        -1.186662
 C         2.165877        -0.642544        -1.304528
 O         1.781347         1.382835         0.086692
 H        -0.629511        -0.184637         1.137685
 H        -0.717228        -0.175306        -0.584980
 H        -0.348647        -1.651779         0.190680
 H         2.520778        -0.224238         2.171608
 H         3.103037        -1.272169         0.837794
 H         4.748311         2.279662        -0.144028
 H         5.355264         1.125603         0.952233
 H         3.202813         1.017649        -1.870722
 H         1.491937        -0.447808        -2.173249
 H         2.260534        -1.730442        -1.212354
