19
Iteration:  1860charge 0 multiplicity 1
 C        -0.041734        -0.477794         0.216227
 C         1.443968        -0.140141         0.035833
 C         2.632917        -0.407604         1.013340
 C         3.120959         0.820549         0.177229
 C         4.537831         1.266507         0.195385
 O         4.865390         0.127883        -0.851653
 C         3.302985         0.350350        -1.237852
 C         2.159616        -0.699364        -1.298191
 O         1.734753         1.310570         0.198306
 H        -0.376829         0.164565         0.970094
 H        -0.662627        -0.324791        -0.735739
 H        -0.005040        -1.442726         0.578561
 H         2.416331        -0.140913         2.037473
 H         3.056822        -1.372636         0.962408
 H         4.727199         2.207765        -0.206759
 H         5.191848         1.050217         1.145753
 H         3.277015         1.112125        -1.931384
 H         1.702338        -0.615908        -2.259739
 H         2.520410        -1.720757        -1.157073
