19
Iteration:  1267
 C        -0.004701        -0.558963         0.326832
 C         1.446765        -0.207762         0.080774
 C         2.655565        -0.397428         0.973644
 C         3.144142         0.843830         0.168641
 C         4.619161         1.185364         0.265793
 O         4.731013         0.137310        -0.785413
 C         3.350131         0.422563        -1.258254
 C         2.155563        -0.580722        -1.362771
 O         1.703757         1.315226         0.046419
 H        -0.464481        -0.280665         1.286923
 H        -0.598241        -0.127951        -0.410126
 H        -0.293980        -1.651989         0.279738
 H         2.512611         0.036964         1.999309
 H         3.360955        -1.311720         1.019842
 H         4.876970         1.985512        -0.281217
 H         5.310752         1.036191         1.188564
 H         3.277087         1.206118        -1.927597
 H         1.516554        -0.499223        -2.304012
 H         2.470894        -1.632847        -1.192795
