19
Iteration:  3017charge 0 multiplicity 1
 C        -0.035091        -0.547338         0.281532
 C         1.434722        -0.203047         0.051617
 C         2.638651        -0.321920         1.001343
 C         3.156349         0.865520         0.139677
 C         4.650226         1.253690         0.223028
 O         4.769421         0.128077        -0.792266
 C         3.328696         0.272458        -1.200103
 C         2.105415        -0.674345        -1.269943
 O         1.745574         1.352834         0.083225
 H        -0.540749        -0.332864         1.221411
 H        -0.536481        -0.039147        -0.602314
 H        -0.173612        -1.594185        -0.174758
 H         2.552606        -0.002757         2.023155
 H         3.285084        -1.217822         1.019014
 H         4.899199         2.292484        -0.284437
 H         5.161807         1.072265         1.189531
 H         3.298204         1.048207        -2.062422
 H         1.672285        -0.399616        -2.318406
 H         2.121886        -1.779397        -1.214777
