19
Iteration:  2625
 C         0.028973        -0.516915         0.309316
 C         1.441789        -0.159540         0.108652
 C         2.663021        -0.322537         1.058413
 C         3.101432         0.887819         0.198898
 C         4.587270         1.141921         0.233218
 O         4.813667         0.116734        -0.831044
 C         3.331300         0.352867        -1.199529
 C         2.166475        -0.671309        -1.368283
 O         1.644779         1.315370         0.013074
 H        -0.323118        -0.424533         1.366803
 H        -0.609027         0.127289        -0.248688
 H        -0.307708        -1.415391        -0.110188
 H         2.562278         0.096065         2.071638
 H         3.401948        -1.136428         0.865168
 H         4.964569         2.108952        -0.168648
 H         5.109205         0.777033         1.160478
 H         3.260560         1.090526        -2.081855
 H         1.537959        -0.526040        -2.236867
 H         2.549121        -1.677388        -1.445655
