19
Iteration:  1873
 C         0.003460        -0.513677         0.293872
 C         1.386313        -0.073647         0.034695
 C         2.545564        -0.464377         1.011586
 C         3.146780         0.706009         0.236395
 C         4.622840         1.237431         0.155118
 O         4.789158         0.247551        -0.840903
 C         3.421581         0.249748        -1.183747
 C         2.181473        -0.629030        -1.335756
 O         1.742283         1.346791         0.093803
 H        -0.574200         0.015445         1.118599
 H        -0.665834        -0.344509        -0.635173
 H        -0.164394        -1.594012         0.410494
 H         2.401029        -0.115795         2.054714
 H         3.140078        -1.385951         0.936909
 H         4.610502         2.223475        -0.323391
 H         5.253983         1.186783         1.128456
 H         3.274363         0.988027        -1.923357
 H         1.541573        -0.518518        -2.112280
 H         2.315991        -1.628691        -1.076240
