19
Iteration:   504charge 0 multiplicity 1
 C         0.006686        -0.596335         0.266158
 C         1.421245        -0.152148         0.046682
 C         2.583465        -0.532582         0.969771
 C         3.129740         0.748802         0.161590
 C         4.598567         1.316815         0.092205
 O         4.776351         0.120195        -0.754754
 C         3.393072         0.336717        -1.176234
 C         2.122835        -0.487501        -1.308545
 O         1.768570         1.367576         0.176746
 H        -0.441577        -0.222697         1.125689
 H        -0.740586        -0.450533        -0.584676
 H        -0.021999        -1.702084         0.500577
 H         2.591144        -0.221183         2.009103
 H         3.057184        -1.497096         0.734990
 H         4.717439         2.325264        -0.510121
 H         5.287858         1.285314         0.845708
 H         3.333919         1.268739        -1.761799
 H         1.544121        -0.166700        -2.180536
 H         2.216021        -1.546704        -1.371316
