19
Iteration:  3267charge 0 multiplicity 1
 C         0.032286        -0.512414         0.178073
 C         1.513260        -0.209152         0.118285
 C         2.636366        -0.285537         1.036422
 C         3.124452         0.824409         0.160147
 C         4.561885         1.208254         0.207630
 O         4.818187         0.120633        -0.841777
 C         3.368536         0.258431        -1.198707
 C         2.025688        -0.659654        -1.273214
 O         1.712161         1.338416         0.082187
 H        -0.514777         0.127113         0.944570
 H        -0.439863        -0.034876        -0.746983
 H        -0.126603        -1.554266         0.581532
 H         2.301462        -0.107624         2.088958
 H         3.443467        -1.196150         1.046719
 H         4.883323         2.194030        -0.364120
 H         5.113234         1.235725         1.190162
 H         3.304979         1.221197        -1.789200
 H         1.286625        -0.585149        -2.172452
 H         2.441216        -1.659369        -1.198528
