19
Iteration:  2383
 C        -0.004211        -0.490550         0.306756
 C         1.447532        -0.136364         0.025840
 C         2.577011        -0.366429         1.119317
 C         3.142476         0.793731         0.308924
 C         4.648418         1.200846         0.161540
 O         4.840092         0.226080        -0.915972
 C         3.357785         0.252489        -1.126306
 C         2.155310        -0.696079        -1.420596
 O         1.698052         1.313533         0.033943
 H        -0.514253         0.148118         1.191356
 H        -0.768040        -0.127315        -0.545482
 H        -0.298965        -1.537428         0.448838
 H         2.334155        -0.173008         2.182078
 H         3.242301        -1.273032         1.001441
 H         4.756778         2.316070        -0.042361
 H         5.357149         0.907851         0.892963
 H         3.113979         1.188001        -1.728931
 H         1.410088        -0.470129        -2.168936
 H         2.199171        -1.822624        -1.456521
