19
Iteration:  2275
 C        -0.025817        -0.608540         0.384392
 C         1.416694        -0.109870        -0.045937
 C         2.517953        -0.351665         1.029171
 C         3.085718         0.825938         0.167225
 C         4.569859         1.216924         0.202202
 O         4.866118         0.144799        -0.836440
 C         3.460859         0.220183        -1.178858
 C         2.068697        -0.625270        -1.399672
 O         1.835165         1.399126         0.124373
 H        -0.059158        -0.498953         1.544753
 H        -0.861378         0.011118        -0.103449
 H        -0.058641        -1.602092         0.001631
 H         2.272542        -0.006859         2.017620
 H         3.135835        -1.222943         0.968305
 H         4.648002         2.202744        -0.328261
 H         4.980161         1.263439         1.210307
 H         3.382957         0.874786        -1.992339
 H         1.487362        -0.250877        -2.325927
 H         2.060066        -1.802104        -1.330819
