19
Iteration:  2920
 C        -0.013310        -0.550054         0.202778
 C         1.387293        -0.162771         0.033477
 C         2.659773        -0.342925         1.043307
 C         3.065984         0.856450         0.151756
 C         4.594637         1.236603         0.150900
 O         4.745026         0.135089        -0.802340
 C         3.350428         0.254490        -1.232387
 C         2.199346        -0.713588        -1.297751
 O         1.779437         1.422782         0.195582
 H        -0.489762         0.081757         0.984029
 H        -0.673480        -0.265079        -0.641581
 H        -0.059202        -1.671227         0.457419
 H         2.369983        -0.207477         2.033570
 H         3.289055        -1.236238         1.177499
 H         4.888937         2.148844        -0.322832
 H         5.189596         1.087011         1.083381
 H         3.468899         0.981305        -1.976522
 H         1.666844        -0.501937        -2.280873
 H         2.353941        -1.795273        -1.255489
