19
Iteration:  2179
 C        -0.017341        -0.608693         0.267355
 C         1.406342        -0.036811         0.029876
 C         2.491382        -0.381855         0.984220
 C         3.168788         0.729445         0.284127
 C         4.618522         1.193305         0.123754
 O         4.846591         0.196660        -0.861008
 C         3.391247         0.283322        -1.158300
 C         2.106087        -0.658935        -1.325544
 O         1.776810         1.410306         0.163889
 H        -0.432892         0.024621         1.121436
 H        -0.664050        -0.479250        -0.544351
 H         0.188599        -1.660406         0.424400
 H         2.361316        -0.067735         2.028407
 H         2.820177        -1.435873         0.859024
 H         4.634381         2.050853        -0.490621
 H         5.384050         1.186180         1.028180
 H         3.191094         1.065431        -2.019815
 H         1.594542        -0.371549        -2.274354
 H         2.299984        -1.773664        -1.267392
