19
Iteration:  2340
 C         0.074835        -0.521348         0.246360
 C         1.473158        -0.261057         0.032880
 C         2.625260        -0.337648         1.017664
 C         3.068907         0.870035         0.162266
 C         4.579539         1.149469         0.201503
 O         4.744257         0.120649        -0.815273
 C         3.278000         0.368738        -1.276360
 C         2.134365        -0.711622        -1.355280
 O         1.793011         1.450417         0.229431
 H        -0.347990         0.188310         1.101144
 H        -0.588904        -0.393066        -0.700950
 H        -0.046111        -1.592461         0.437869
 H         2.252869         0.036436         1.970310
 H         3.192106        -1.274103         1.109678
 H         4.846712         2.118450        -0.306198
 H         5.139075         1.009019         1.107174
 H         3.321169         1.135948        -2.014677
 H         1.627039        -0.777946        -2.342613
 H         2.525794        -1.780487        -1.160539
