19
Iteration:   366charge 0 multiplicity 1
 C         0.072360        -0.493835         0.268050
 C         1.506811        -0.244505         0.022748
 C         2.717569        -0.396253         0.978370
 C         3.073502         0.976970         0.165947
 C         4.682918         1.178177         0.198581
 O         4.724816         0.134084        -0.793938
 C         3.361641         0.357080        -1.247303
 C         2.111216        -0.675606        -1.355502
 O         1.542840         1.320825         0.210548
 H        -0.093012        -0.146492         1.381886
 H        -0.446860         0.074852        -0.542320
 H        -0.220477        -1.492440         0.269869
 H         2.691675        -0.228259         2.059727
 H         3.367297        -1.283658         0.788420
 H         4.975087         2.091252        -0.225972
 H         5.339073         1.019826         1.157491
 H         3.342446         0.966728        -2.123172
 H         1.425335        -0.387336        -2.237329
 H         2.341897        -1.833911        -1.388463
