19
Iteration:   308charge 0 multiplicity 1
 C         0.076555        -0.606973         0.331213
 C         1.421013        -0.156578        -0.032396
 C         2.521937        -0.319631         0.973734
 C         3.140283         0.825129         0.270694
 C         4.668143         1.156693         0.164808
 O         4.912664         0.194766        -0.950384
 C         3.382519         0.313867        -1.086578
 C         2.011377        -0.611474        -1.316624
 O         1.689112         1.343056         0.142437
 H        -0.435573        -0.177344         1.115658
 H        -0.674758        -0.492140        -0.579488
 H         0.134398        -1.751302         0.457230
 H         2.146627        -0.004808         1.922930
 H         3.058347        -1.247224         0.982374
 H         4.786005         2.231890        -0.207118
 H         5.161822         0.937258         1.012711
 H         3.201624         1.180431        -1.840283
 H         1.437954        -0.413853        -2.157661
 H         2.227178        -1.594987        -1.266267
