19
Iteration:  1247
 C         0.046925        -0.520890         0.256595
 C         1.499691        -0.226116         0.002617
 C         2.702956        -0.288006         0.962831
 C         3.071860         0.913064         0.141108
 C         4.593710         1.206732         0.141078
 O         4.810025         0.027576        -0.725255
 C         3.279633         0.382507        -1.233231
 C         2.174986        -0.593192        -1.346203
 O         1.597696         1.278594         0.215365
 H        -0.203553        -0.254588         1.401137
 H        -0.619989         0.041416        -0.347174
 H        -0.125939        -1.517637         0.080734
 H         2.305772        -0.117766         1.973632
 H         3.299422        -1.229032         0.815015
 H         5.033887         2.205014        -0.298996
 H         5.075981         0.862312         1.168199
 H         3.492255         1.075531        -1.991186
 H         1.481886        -0.319514        -2.205295
 H         2.621420        -1.654601        -1.358351
