19
Iteration:  4235charge 0 multiplicity 1
 C         0.020304        -0.511563         0.252217
 C         1.446501        -0.182531         0.032064
 C         2.694930        -0.307733         1.006512
 C         3.138085         0.899032         0.181483
 C         4.576222         1.194834         0.117050
 O         4.739170         0.086092        -0.744656
 C         3.385461         0.359968        -1.225629
 C         2.155809        -0.657186        -1.306524
 O         1.639283         1.279065         0.111253
 H        -0.277145        -0.010522         1.213127
 H        -0.641254        -0.169910        -0.499436
 H        -0.093745        -1.535032         0.450704
 H         2.459067         0.174785         1.984351
 H         3.227205        -1.268487         1.075352
 H         4.864497         2.157495        -0.359233
 H         5.092927         0.945453         1.124655
 H         3.524579         1.101694        -1.960892
 H         1.729629        -0.514107        -2.240561
 H         2.373313        -1.781876        -1.167222
