19
Iteration:   519
 C        -0.015374        -0.652030         0.341380
 C         1.413846        -0.096411        -0.008838
 C         2.566439        -0.446263         1.004620
 C         3.156470         0.786208         0.297482
 C         4.541381         1.302335         0.120330
 O         4.841301         0.123518        -0.770215
 C         3.392359         0.294804        -1.225583
 C         2.067152        -0.479613        -1.436534
 O         1.829411         1.289743         0.164321
 H        -0.303631        -0.179216         1.436424
 H        -0.748398        -0.363662        -0.391582
 H         0.183765        -1.677420         0.303108
 H         2.104645        -0.283392         1.989368
 H         3.056870        -1.426667         1.036142
 H         4.430905         2.205554        -0.520509
 H         5.297982         1.474216         1.015635
 H         3.566537         1.095584        -2.141979
 H         1.523718         0.036820        -2.211067
 H         2.023269        -1.523613        -1.756573
