19
Iteration:  2214charge 0 multiplicity 1
 C         0.002230        -0.501496         0.180597
 C         1.451504        -0.210714         0.080308
 C         2.640344        -0.340604         1.056645
 C         3.137081         0.862556         0.212023
 C         4.587512         1.136439         0.169033
 O         4.744546         0.137181        -0.868575
 C         3.321300         0.341314        -1.193660
 C         2.178699        -0.681550        -1.327072
 O         1.723645         1.350109         0.194165
 H        -0.473637         0.045385         0.951010
 H        -0.410014        -0.181472        -0.729230
 H        -0.419009        -1.521812         0.396554
 H         2.620451         0.016351         2.116079
 H         3.313585        -1.248919         1.017032
 H         4.850028         2.043704        -0.392082
 H         5.229730         1.131569         1.041432
 H         3.374433         1.179026        -1.977484
 H         1.534295        -0.362119        -2.109749
 H         2.390225        -1.690211        -1.480092
