19
Iteration:  4748charge 0 multiplicity 1
 C        -0.018456        -0.547897         0.193135
 C         1.474209        -0.201097         0.062228
 C         2.588447        -0.327142         1.069643
 C         3.148582         0.881660         0.163548
 C         4.606501         1.293336         0.150721
 O         4.811778         0.068996        -0.788843
 C         3.369966         0.264433        -1.207534
 C         2.154331        -0.608499        -1.334705
 O         1.693738         1.311659         0.163192
 H        -0.222582        -0.152355         1.134932
 H        -0.751714         0.035883        -0.403625
 H        -0.448899        -1.532817         0.266059
 H         2.268299        -0.206615         2.131647
 H         3.169065        -1.294879         0.951043
 H         4.712198         2.174569        -0.580696
 H         5.358281         1.200725         0.994880
 H         3.337875         1.081428        -1.960774
 H         1.558783        -0.259553        -2.206752
 H         2.377773        -1.715921        -1.303935
