19
Iteration:  3856
 C         0.014681        -0.518705         0.306614
 C         1.514505        -0.180060         0.061696
 C         2.710649        -0.262855         1.000348
 C         3.104929         0.894460         0.030140
 C         4.620232         1.175009         0.269111
 O         4.724217         0.087758        -0.728693
 C         3.313377         0.352082        -1.289438
 C         2.120585        -0.629210        -1.344664
 O         1.694149         1.246839         0.094134
 H        -0.142016        -0.402276         1.387295
 H        -0.687512        -0.037654        -0.343094
 H        -0.150913        -1.570834         0.287514
 H         2.352526         0.230341         1.899763
 H         3.184860        -1.146708         1.326265
 H         4.867248         2.174526        -0.135800
 H         5.077093         0.939101         1.285927
 H         3.331896         1.136374        -2.040287
 H         1.528338        -0.456404        -2.191709
 H         2.482723        -1.709663        -1.558235
