19
Iteration:  4370
 C        -0.039809        -0.645627         0.266521
 C         1.447583        -0.080014        -0.000086
 C         2.647237        -0.305415         0.961137
 C         3.068921         0.875355         0.147957
 C         4.531846         1.324482         0.198609
 O         4.758434         0.000863        -0.760903
 C         3.443648         0.259610        -1.233994
 C         2.122751        -0.666483        -1.266791
 O         1.794968         1.407140         0.161933
 H        -0.252766        -0.473562         1.290734
 H        -0.669359        -0.115223        -0.498655
 H        -0.083148        -1.770509         0.162076
 H         2.294248         0.113675         1.942659
 H         3.214361        -1.281207         1.108824
 H         4.789429         2.001664        -0.671896
 H         5.243490         1.345200         1.104941
 H         3.335944         1.119933        -1.952727
 H         1.679332        -0.381191        -2.332175
 H         2.255786        -1.747192        -1.272319
