19
Iteration:   997
 C         0.106874        -0.509473         0.134527
 C         1.474467        -0.144356        -0.035089
 C         2.531287        -0.475021         1.048521
 C         3.185621         0.804203         0.265381
 C         4.645266         1.314351         0.131051
 O         4.808016         0.175351        -0.855207
 C         3.285643         0.282465        -1.107517
 C         2.049595        -0.692957        -1.322026
 O         1.712132         1.338878         0.224155
 H        -0.256932         0.011220         1.166114
 H        -0.648286        -0.390935        -0.671331
 H         0.118440        -1.576167         0.310502
 H         2.125610        -0.142138         1.957971
 H         3.024038        -1.429277         1.055061
 H         4.885954         2.396999        -0.343486
 H         5.371567         1.198612         0.841162
 H         3.328936         1.190268        -1.788555
 H         1.488280        -0.235482        -2.086030
 H         2.223391        -1.720644        -1.545150
