19
Iteration:  1416charge 0 multiplicity 1
 C         0.091926        -0.590017         0.388262
 C         1.427875        -0.126285        -0.014722
 C         2.555845        -0.335091         0.980545
 C         3.099756         0.852591         0.213754
 C         4.665937         1.189109         0.247110
 O         4.780288         0.137488        -0.781619
 C         3.385639         0.314988        -1.275151
 C         2.168318        -0.570544        -1.404242
 O         1.687592         1.281825         0.092718
 H        -0.106781        -0.510153         1.405719
 H        -0.771369         0.088595        -0.015615
 H        -0.172294        -1.626597        -0.090486
 H         2.122290        -0.124567         1.914363
 H         3.079361        -1.236287         1.181246
 H         4.797697         2.223939        -0.214415
 H         5.207872         1.028303         1.070681
 H         3.430417         1.000090        -2.248825
 H         1.502470        -0.272564        -2.207820
 H         2.012263        -1.615100        -1.227086
