19
Iteration:   814charge 0 multiplicity 1
 C         0.041759        -0.544390         0.294432
 C         1.435242        -0.078026        -0.040602
 C         2.452028        -0.445760         1.048626
 C         3.154592         0.692135         0.270986
 C         4.630272         1.264260         0.226119
 O         4.875595         0.296817        -0.943998
 C         3.360785         0.294918        -1.176847
 C         2.104848        -0.695419        -1.279080
 O         1.747357         1.357433         0.068909
 H        -0.231841        -0.134505         1.283156
 H        -0.762072        -0.328149        -0.417931
 H         0.089734        -1.575263         0.459436
 H         2.429189        -0.203152         2.123483
 H         2.835415        -1.478321         0.804893
 H         4.690279         2.270369         0.007139
 H         5.284601         0.993846         1.091262
 H         3.175919         0.904689        -1.988501
 H         1.429597        -0.486234        -2.091920
 H         2.270732        -1.793199        -1.227310
