19
Iteration:   652
 C         0.056220        -0.445795         0.260267
 C         1.475219        -0.168715         0.016669
 C         2.638350        -0.478653         0.963663
 C         3.145090         0.838891         0.160258
 C         4.609251         1.318816         0.176611
 O         4.731843         0.188895        -0.831142
 C         3.290718         0.283870        -1.220048
 C         2.172375        -0.693360        -1.413529
 O         1.716272         1.274228         0.288189
 H        -0.335242         0.272801         1.065965
 H        -0.452866        -0.194612        -0.711358
 H        -0.313146        -1.485778         0.571318
 H         2.405298        -0.161328         1.978952
 H         3.076594        -1.494800         0.998739
 H         4.753865         2.421713         0.030337
 H         5.187004         0.967689         1.150310
 H         3.290791         1.129968        -2.076904
 H         1.524115        -0.464695        -2.252761
 H         2.375435        -1.781051        -1.219636
