19
Iteration:  1315
 C        -0.045628        -0.545030         0.278302
 C         1.374814        -0.131933         0.025193
 C         2.504053        -0.410162         1.013909
 C         3.207190         0.747633         0.224989
 C         4.616827         1.252311         0.188822
 O         4.825863         0.223912        -0.894620
 C         3.347003         0.353021        -1.216340
 C         2.164652        -0.667600        -1.305283
 O         1.815508         1.291056         0.152106
 H        -0.613716        -0.029253         1.094623
 H        -0.748648        -0.430451        -0.629005
 H        -0.129515        -1.538806         0.480393
 H         2.310283         0.052756         1.997217
 H         2.952051        -1.374189         1.096539
 H         4.680904         2.376006        -0.086153
 H         5.272557         1.021571         1.011478
 H         3.192097         1.214277        -1.931861
 H         1.579069        -0.502927        -2.215790
 H         2.550591        -1.725009        -1.280871
