19
Iteration:   218charge 0 multiplicity 1
 C        -0.050933        -0.631841         0.330578
 C         1.405710        -0.179766        -0.028804
 C         2.573279        -0.388298         1.161392
 C         3.180258         0.714059         0.235121
 C         4.528092         1.279044         0.211697
 O         4.891563         0.167674        -0.936191
 C         3.348474         0.333767        -1.233998
 C         2.102332        -0.570949        -1.304152
 O         1.828644         1.392169         0.020007
 H        -0.253752        -0.554467         1.543973
 H        -0.853622        -0.028079        -0.067438
 H        -0.201556        -1.703843        -0.068521
 H         2.169318         0.022442         2.125506
 H         2.972941        -1.429132         1.173527
 H         4.664570         2.299770        -0.177650
 H         5.081921         0.950626         1.125306
 H         3.431015         1.328745        -1.924761
 H         1.351845        -0.467620        -2.032122
 H         2.405137        -1.563638        -1.337848
