19
Iteration:   292
 C        -0.035506        -0.554182         0.239999
 C         1.438794        -0.165569         0.073994
 C         2.661652        -0.383983         1.073412
 C         3.128480         0.842945         0.170511
 C         4.658136         1.230193         0.190587
 O         4.754549         0.163159        -0.873456
 C         3.324878         0.357040        -1.271523
 C         2.167172        -0.621336        -1.343646
 O         1.690522         1.285421         0.187249
 H        -0.398221         0.052959         1.165226
 H        -0.639663        -0.315424        -0.572215
 H        -0.114922        -1.598250         0.521317
 H         2.414190        -0.031047         2.115468
 H         3.310706        -1.309333         1.115821
 H         5.003185         2.172894        -0.193401
 H         5.294727         0.885695         1.136738
 H         3.300695         1.162160        -2.041254
 H         1.567781        -0.379738        -2.294408
 H         2.341451        -1.795583        -1.401820
