19
Iteration:  4852
 C         0.046906        -0.560809         0.243782
 C         1.436032        -0.125845        -0.031611
 C         2.563257        -0.379446         1.012541
 C         3.106910         0.849782         0.267857
 C         4.588053         1.275782         0.044394
 O         4.768014         0.077528        -0.780946
 C         3.374582         0.282655        -1.106678
 C         2.186729        -0.662106        -1.353071
 O         1.757083         1.397854         0.160652
 H        -0.350035        -0.273133         1.263039
 H        -0.720223        -0.096461        -0.354112
 H        -0.173399        -1.627823         0.250006
 H         2.372578        -0.042079         2.105515
 H         2.978180        -1.326634         0.784401
 H         4.746210         2.306267        -0.326875
 H         5.271207         1.092906         0.977826
 H         3.332882         1.009249        -1.943995
 H         1.563171        -0.550573        -2.196797
 H         2.279263        -1.773785        -1.385064
