19
Iteration:  2403charge 0 multiplicity 1
 C         0.034461        -0.430477         0.266500
 C         1.453338        -0.270302         0.035941
 C         2.591209        -0.394794         0.995516
 C         3.105444         0.840201         0.130353
 C         4.570371         1.205277         0.202443
 O         4.773809         0.155545        -0.856422
 C         3.335327         0.365923        -1.212519
 C         2.190483        -0.646050        -1.258672
 O         1.755386         1.269188         0.145844
 H        -0.354928        -0.019660         1.245696
 H        -0.552629         0.190931        -0.502098
 H        -0.218197        -1.479484         0.320222
 H         2.258384         0.172628         1.911267
 H         3.116601        -1.386959         1.271578
 H         4.864720         2.202189        -0.281645
 H         5.215160         1.101178         1.062327
 H         3.064078         1.155826        -2.027849
 H         1.612423        -0.603015        -2.161618
 H         2.489362        -1.689777        -1.212083
