19
Iteration:  3771charge 0 multiplicity 1
 C        -0.030469        -0.459536         0.140357
 C         1.495340        -0.224651         0.057905
 C         2.784721        -0.321924         1.048624
 C         3.139361         0.865967         0.207036
 C         4.613262         1.238006         0.131718
 O         4.748541         0.154572        -0.816975
 C         3.353162         0.260488        -1.136225
 C         2.060534        -0.694766        -1.273893
 O         1.670301         1.276158         0.136217
 H        -0.328629         0.280949         0.956724
 H        -0.513215        -0.207375        -0.830666
 H        -0.380443        -1.470504         0.339598
 H         2.391187         0.005237         2.120808
 H         3.410898        -1.193198         0.926879
 H         4.683558         2.243916        -0.309584
 H         5.204686         1.113294         0.982063
 H         3.250323         1.042679        -1.954098
 H         1.475745        -0.428618        -2.095062
 H         2.440556        -1.763912        -1.174395
