19
Iteration:  4821charge 0 multiplicity 1
 C        -0.014695        -0.521961         0.288309
 C         1.401652        -0.165568         0.014858
 C         2.694106        -0.320488         1.012477
 C         3.118827         0.822149         0.187035
 C         4.611320         1.183380         0.266800
 O         4.775671         0.146335        -0.872927
 C         3.381739         0.376664        -1.219647
 C         2.159731        -0.636163        -1.323040
 O         1.701003         1.245945         0.057880
 H        -0.432336         0.319576         1.187232
 H        -0.763401        -0.250174        -0.487602
 H        -0.322137        -1.472100         0.705168
 H         2.496686         0.287359         2.012981
 H         3.204953        -1.245936         1.090826
 H         4.955781         2.208501         0.133948
 H         4.937026         0.645990         1.137341
 H         3.356096         1.146843        -1.982493
 H         1.460955        -0.590179        -2.121167
 H         2.576551        -1.703994        -1.193285
