19
Iteration:  3214
 C         0.019138        -0.425852         0.299334
 C         1.448787        -0.204982         0.039182
 C         2.551316        -0.396765         1.046926
 C         3.146959         0.819173         0.182438
 C         4.594187         1.213187         0.195006
 O         4.844032         0.165884        -0.806298
 C         3.302398         0.358773        -1.209242
 C         2.141779        -0.772835        -1.329947
 O         1.717080         1.340223         0.046530
 H        -0.149226        -0.072917         1.283983
 H        -0.652579         0.104759        -0.394228
 H        -0.102764        -1.514052         0.445557
 H         2.137316         0.089118         1.903446
 H         3.166893        -1.332624         1.072421
 H         4.749408         2.323188        -0.053661
 H         5.152813         1.070305         1.059435
 H         3.348220         1.104749        -2.106553
 H         1.607420        -0.712540        -2.349230
 H         2.637304        -1.765487        -1.218812
