19
Iteration:  3630
 C        -0.039194        -0.578125         0.277678
 C         1.420731        -0.090470         0.039715
 C         2.605612        -0.384535         1.021492
 C         3.168398         0.789628         0.177619
 C         4.595710         1.287685         0.186363
 O         4.870406         0.130723        -0.788175
 C         3.344552         0.256390        -1.142045
 C         2.063940        -0.683234        -1.335632
 O         1.738784         1.359325         0.061200
 H        -0.316516        -0.077826         1.288043
 H        -0.665231        -0.262775        -0.595907
 H        -0.192305        -1.654731         0.259413
 H         2.417331         0.105328         2.060142
 H         3.271600        -1.141134         0.765435
 H         4.612381         2.297528        -0.447501
 H         5.216420         1.334880         1.044707
 H         3.312252         1.030058        -1.886971
 H         1.715702        -0.399175        -2.281847
 H         2.294038        -1.761870        -1.101482
