19
Iteration:  2660charge 0 multiplicity 1
 C         0.066654        -0.562941         0.273332
 C         1.456720        -0.105540        -0.012917
 C         2.504651        -0.357692         1.026827
 C         3.178359         0.812652         0.172974
 C         4.596812         1.266278         0.116571
 O         4.837523         0.096228        -0.734324
 C         3.350241         0.298039        -1.208795
 C         2.060555        -0.669907        -1.365344
 O         1.719706         1.367431         0.176403
 H        -0.161175        -0.360612         1.278270
 H        -0.616915        -0.008419        -0.320229
 H         0.112413        -1.698624         0.199082
 H         2.311249        -0.015499         1.994396
 H         2.839572        -1.374092         1.169418
 H         4.576461         2.209580        -0.399546
 H         5.487484         1.300517         0.862812
 H         3.420318         0.976953        -2.179294
 H         1.532196        -0.447831        -2.308435
 H         2.342497        -1.688414        -1.224077
