19
Iteration:  4430
 C         0.017164        -0.452911         0.345379
 C         1.446501        -0.210488         0.062296
 C         2.656868        -0.338218         1.024828
 C         3.019463         0.876075         0.137627
 C         4.563264         1.145715         0.233130
 O         4.793856         0.110127        -0.846086
 C         3.381277         0.374181        -1.206209
 C         2.245029        -0.704665        -1.366018
 O         1.668989         1.329142         0.061807
 H        -0.373092         0.287427         1.187617
 H        -0.686581        -0.287409        -0.504078
 H        -0.253073        -1.451842         0.664369
 H         2.277524         0.003863         2.027839
 H         3.196089        -1.242678         1.180008
 H         5.004807         2.052558        -0.092400
 H         5.143652         0.930513         1.146899
 H         3.292624         1.111048        -2.028560
 H         1.702259        -0.463177        -2.221944
 H         2.660886        -1.764435        -1.415719
