19
Iteration:  4240charge 0 multiplicity 1
 C        -0.015086        -0.516273         0.237877
 C         1.513083        -0.212213         0.094744
 C         2.666053        -0.312227         1.012099
 C         3.115436         0.864710         0.162055
 C         4.584591         1.214576         0.118076
 O         4.724878         0.071992        -0.742001
 C         3.348895         0.382499        -1.221316
 C         2.216553        -0.636244        -1.305123
 O         1.672415         1.267716         0.100095
 H        -0.185395         0.145309         1.085557
 H        -0.745319        -0.131166        -0.546378
 H        -0.211403        -1.627648         0.445719
 H         2.428705         0.207505         1.956574
 H         3.233731        -1.245982         1.061823
 H         4.915361         2.159383        -0.315430
 H         5.099527         1.096704         1.037892
 H         3.482377         1.141041        -2.081019
 H         1.517341        -0.436694        -2.231235
 H         2.279592        -1.685929        -1.149098
