19
Iteration:  2764
 C        -0.054356        -0.608734         0.235969
 C         1.426096        -0.118644         0.007098
 C         2.578014        -0.363154         0.969369
 C         3.130576         0.828346         0.202000
 C         4.614761         1.248832         0.194655
 O         4.846485         0.163763        -0.826242
 C         3.359291         0.221817        -1.174620
 C         2.088896        -0.641490        -1.228303
 O         1.773491         1.421174         0.105634
 H        -0.234843        -0.180254         1.302144
 H        -0.771828        -0.320466        -0.584339
 H         0.173865        -1.668777         0.136199
 H         2.265691        -0.076411         1.998729
 H         3.268769        -1.159281         0.866333
 H         4.932560         2.093936        -0.420375
 H         5.233220         1.090797         0.989787
 H         3.275446         0.993744        -1.895729
 H         1.390027        -0.679652        -2.097494
 H         2.157811        -1.767731        -1.065636
