19
Iteration:  3192charge 0 multiplicity 1
 C        -0.005095        -0.460044         0.263448
 C         1.447250        -0.188076         0.064438
 C         2.714692        -0.308889         1.025491
 C         3.069459         0.868605         0.146840
 C         4.561913         1.230206         0.229131
 O         4.759247         0.124799        -0.835303
 C         3.415061         0.279415        -1.157548
 C         2.135646        -0.703241        -1.264236
 O         1.699404         1.265271         0.036275
 H        -0.425975        -0.219090         1.198567
 H        -0.439934         0.236643        -0.469154
 H        -0.232426        -1.528983         0.176205
 H         2.550846         0.036629         2.029956
 H         3.371777        -1.176712         0.730400
 H         4.961992         2.266328         0.034870
 H         4.997605         1.028428         1.139621
 H         3.473935         0.976116        -2.111085
 H         1.688222        -0.200886        -2.218175
 H         1.974094        -1.798721        -1.245013
