19
Iteration:  4975
 C        -0.047220        -0.556055         0.218111
 C         1.446824        -0.192909         0.055117
 C         2.644452        -0.362194         1.031080
 C         3.170264         0.875396         0.224172
 C         4.581393         1.276766         0.176909
 O         4.846672         0.106467        -0.793002
 C         3.333336         0.240915        -1.224373
 C         2.039631        -0.584972        -1.277617
 O         1.780530         1.350955         0.082431
 H        -0.662074         0.139302         0.888767
 H        -0.440084        -0.638660        -0.773020
 H        -0.185319        -1.509381         0.494307
 H         2.364126        -0.212988         2.111757
 H         3.174908        -1.316346         1.229949
 H         4.790825         2.382477        -0.150740
 H         5.191500         1.070414         1.038511
 H         3.353819         0.871463        -2.147991
 H         1.517002        -0.295643        -2.171471
 H         2.168620        -1.689419        -1.416768
