19
Iteration:  4323
 C         0.008986        -0.445110         0.302009
 C         1.474287        -0.250014         0.015093
 C         2.604852        -0.270212         1.046106
 C         3.130838         0.810370         0.211162
 C         4.602734         1.203808         0.213844
 O         4.778710         0.168305        -0.872124
 C         3.370602         0.324467        -1.169131
 C         2.165963        -0.689698        -1.304980
 O         1.677917         1.306852         0.028565
 H        -0.241142        -0.283575         1.371733
 H        -0.626011         0.050459        -0.384393
 H        -0.184720        -1.486895         0.280061
 H         2.160773         0.135107         2.036724
 H         3.211164        -1.159057         1.130437
 H         4.798793         2.237868        -0.123698
 H         5.047966         0.720494         1.193929
 H         3.287234         0.854042        -2.067915
 H         1.717648        -0.595656        -2.264438
 H         2.550168        -1.794161        -1.277331
