19
Iteration:  2780charge 0 multiplicity 1
 C         0.031717        -0.541013         0.243866
 C         1.439826        -0.104895         0.087036
 C         2.662525        -0.285840         1.041895
 C         3.127356         0.836376         0.163899
 C         4.591884         1.242578         0.129091
 O         4.801151         0.081417        -0.794649
 C         3.380370         0.279332        -1.197003
 C         2.139241        -0.667260        -1.313745
 O         1.658957         1.328133         0.133822
 H        -0.508771        -0.267895         1.100414
 H        -0.511833         0.030729        -0.486004
 H        -0.035628        -1.653201         0.018147
 H         2.570625         0.011380         2.082760
 H         2.998793        -1.418509         1.084257
 H         4.658877         2.279038        -0.240094
 H         5.134167         1.050236         1.175897
 H         3.279167         0.902724        -2.145283
 H         1.685293        -0.383253        -2.289300
 H         2.221257        -1.732909        -1.410825
