19
Iteration:  3678charge 0 multiplicity 1
 C        -0.071862        -0.530487         0.320595
 C         1.481781        -0.179741         0.047809
 C         2.717516        -0.249403         1.004045
 C         3.132475         0.899404         0.147015
 C         4.601595         1.232311         0.183713
 O         4.810704         0.039264        -0.757254
 C         3.366876         0.337946        -1.230368
 C         2.173158        -0.682063        -1.343408
 O         1.605810         1.305286         0.090722
 H        -0.343390        -0.265058         1.323432
 H        -0.835413        -0.106685        -0.388250
 H        -0.174448        -1.649833         0.186589
 H         2.356743         0.107876         1.878847
 H         3.192724        -1.254996         0.889551
 H         5.023186         2.123727        -0.276906
 H         5.164907         0.972860         1.167828
 H         3.367022         1.168444        -1.940508
 H         1.433596        -0.443487        -2.209469
 H         2.657978        -1.621198        -1.345065
