19
Iteration:  1053
 C         0.137913        -0.529951         0.312976
 C         1.492576        -0.219022        -0.028991
 C         2.621336        -0.357588         0.888300
 C         3.034549         0.904906         0.106241
 C         4.607601         1.142648         0.289576
 O         4.721777         0.210186        -0.752191
 C         3.365447         0.353578        -1.228942
 C         2.110611        -0.677942        -1.312066
 O         1.663851         1.323600         0.156209
 H        -0.110710        -0.280023         1.429156
 H        -0.403014         0.264457        -0.366554
 H        -0.116668        -1.555684         0.110305
 H         2.362546        -0.277626         1.929801
 H         3.309855        -1.153958         0.747265
 H         5.231310         2.055383        -0.097811
 H         4.979564         0.660637         1.178177
 H         3.448286         1.111973        -2.069626
 H         1.573304        -0.585784        -2.194832
 H         2.434091        -1.693213        -1.280618
