19
Iteration:  3792
 C        -0.006117        -0.507572         0.256237
 C         1.450218        -0.183694         0.116421
 C         2.593553        -0.383563         1.065545
 C         3.065937         0.856818         0.090372
 C         4.532010         1.283627         0.181156
 O         4.827153         0.110270        -0.814256
 C         3.354899         0.273354        -1.277312
 C         2.188597        -0.658204        -1.305357
 O         1.791319         1.345456         0.153713
 H        -0.474657        -0.059221         1.184570
 H        -0.461495        -0.311129        -0.709139
 H        -0.104643        -1.587152         0.241267
 H         2.335780         0.092375         2.115801
 H         2.948252        -1.417166         1.099188
 H         4.687198         2.213843        -0.373137
 H         5.182777         1.172232         1.016253
 H         3.259410         1.104066        -2.039696
 H         1.521418        -0.376681        -2.051047
 H         2.393727        -1.810222        -1.265212
