19
Iteration:   793charge 0 multiplicity 1
 C        -0.082713        -0.509077         0.309709
 C         1.439056        -0.228961         0.025102
 C         2.628972        -0.392902         0.994189
 C         3.079882         0.765615         0.194479
 C         4.587750         1.189938         0.191481
 O         4.804646         0.291460        -0.865902
 C         3.329053         0.299145        -1.222226
 C         2.148610        -0.667012        -1.330053
 O         1.842217         1.315725         0.118565
 H        -0.346229         0.015076         1.227799
 H        -0.659124        -0.035719        -0.546766
 H        -0.297354        -1.599942         0.489180
 H         2.329351        -0.017476         1.997263
 H         3.247423        -1.321631         1.207009
 H         4.652090         2.266066        -0.078612
 H         5.084094         1.079190         1.279514
 H         3.245907         1.164388        -1.853757
 H         1.633845        -0.525979        -2.272657
 H         2.524879        -1.737755        -1.276849
