19
Iteration:  3073charge 0 multiplicity 1
 C         0.008946        -0.478876         0.260159
 C         1.412370        -0.249588        -0.024644
 C         2.570641        -0.410764         1.024077
 C         3.110819         0.863826         0.223883
 C         4.572256         1.198254         0.181814
 O         4.757194         0.138693        -0.851578
 C         3.311828         0.337571        -1.184517
 C         2.201306        -0.701173        -1.235448
 O         1.807923         1.411894         0.087018
 H        -0.391070         0.163405         1.048594
 H        -0.623279        -0.453191        -0.681995
 H        -0.110733        -1.545610         0.716590
 H         2.406798        -0.150300         2.036015
 H         3.251537        -1.244154         0.815186
 H         4.830392         2.230370        -0.278519
 H         5.209158         1.093997         1.155616
 H         3.215209         1.240249        -1.911172
 H         1.777371        -0.600861        -2.310987
 H         2.461236        -1.770701        -1.128605
