19
Iteration:  4855charge 0 multiplicity 1
 C         0.008347        -0.563015         0.248095
 C         1.448207        -0.135878        -0.060077
 C         2.569799        -0.378347         1.006275
 C         3.113094         0.831955         0.243203
 C         4.580395         1.299454         0.054562
 O         4.763888         0.066053        -0.781742
 C         3.400927         0.282068        -1.090062
 C         2.166231        -0.651804        -1.344108
 O         1.769692         1.408245         0.175246
 H        -0.386607        -0.344630         1.424213
 H        -0.772730        -0.119470        -0.450057
 H        -0.086623        -1.654898         0.116151
 H         2.457574        -0.026199         2.096980
 H         3.017478        -1.385981         0.923407
 H         4.747787         2.299366        -0.405081
 H         5.212590         1.178510         0.867307
 H         3.347696         1.040587        -1.862640
 H         1.638868        -0.501483        -2.281099
 H         2.173477        -1.803354        -1.243956
