19
Iteration:  2450charge 0 multiplicity 1
 C         0.024407        -0.587372         0.262915
 C         1.443543        -0.157475         0.036213
 C         2.600606        -0.330801         0.959346
 C         3.163081         0.799806         0.224276
 C         4.627375         1.249962         0.100771
 O         4.783616         0.115892        -0.757517
 C         3.396476         0.318984        -1.188013
 C         2.055191        -0.627285        -1.268820
 O         1.722752         1.342071         0.116134
 H        -0.387276        -0.493935         1.390840
 H        -0.460913         0.302706        -0.284595
 H        -0.196199        -1.629518        -0.069450
 H         2.306398        -0.061072         1.989900
 H         3.093748        -1.308066         0.866516
 H         4.716293         2.270264        -0.350224
 H         5.286209         1.192617         0.968645
 H         3.492672         1.003045        -2.095970
 H         1.391801        -0.372984        -2.124763
 H         2.256563        -1.739528        -1.371715
