19
Iteration:  4706
 C        -0.014193        -0.527792         0.321476
 C         1.406477        -0.177169        -0.009519
 C         2.631422        -0.346757         1.016731
 C         3.099684         0.821772         0.161817
 C         4.551802         1.250116         0.237954
 O         4.775274         0.085745        -0.820946
 C         3.355008         0.337970        -1.268376
 C         2.206045        -0.664326        -1.238820
 O         1.752490         1.376331         0.083922
 H        -0.225197        -0.511567         1.332653
 H        -0.650876         0.288293        -0.146020
 H        -0.180694        -1.525662        -0.185510
 H         2.579937         0.015481         1.999802
 H         3.267831        -1.273400         0.756359
 H         4.967722         2.199331        -0.185523
 H         4.880947         0.961207         1.348818
 H         3.384488         0.961220        -2.216604
 H         1.567492        -0.627194        -2.167700
 H         2.454969        -1.723022        -1.225929
