19
Iteration:  3773charge 0 multiplicity 1
 C        -0.025380        -0.468902         0.139029
 C         1.496468        -0.235724         0.066760
 C         2.770130        -0.323197         1.049927
 C         3.152271         0.835958         0.211196
 C         4.591118         1.236741         0.125591
 O         4.752146         0.146991        -0.820865
 C         3.359838         0.277289        -1.149145
 C         2.067708        -0.697264        -1.255864
 O         1.673500         1.295622         0.138047
 H        -0.354661         0.284063         0.887472
 H        -0.559797        -0.123610        -0.779670
 H        -0.355273        -1.505514         0.367773
 H         2.425456         0.050226         2.084500
 H         3.441329        -1.142417         0.917374
 H         4.697653         2.275698        -0.300857
 H         5.095796         1.154626         1.026834
 H         3.292014         1.005841        -1.983177
 H         1.483300        -0.400341        -2.131514
 H         2.405630        -1.703783        -1.236442
