19
Iteration:   195
 C         0.103559        -0.571412         0.310899
 C         1.447585        -0.150589         0.019130
 C         2.515374        -0.313636         1.007581
 C         3.066473         0.898419         0.192532
 C         4.707025         1.099539         0.191963
 O         4.742481         0.213656        -0.882297
 C         3.352775         0.314524        -1.166827
 C         2.168750        -0.678646        -1.337082
 O         1.677944         1.337689         0.134224
 H        -0.311026        -0.541544         1.479185
 H        -0.552998        -0.008505        -0.280505
 H         0.123741        -1.592976        -0.143670
 H         2.238096         0.007445         2.042675
 H         3.272671        -1.161292         0.917997
 H         5.019378         2.024305        -0.252323
 H         5.241486         0.838744         1.190506
 H         3.345688         1.197351        -2.001854
 H         1.558211        -0.537925        -2.201203
 H         2.322171        -1.738553        -1.228519
