19
Iteration:  3963
 C         0.006620        -0.483085         0.313199
 C         1.410153        -0.170950        -0.025448
 C         2.643177        -0.393089         1.032554
 C         3.097125         0.830777         0.151026
 C         4.578584         1.142336         0.226032
 O         4.850160         0.192759        -0.851553
 C         3.271212         0.395469        -1.274035
 C         2.224137        -0.710283        -1.187604
 O         1.657550         1.332887         0.061819
 H        -0.421477         0.115514         1.176432
 H        -0.689021        -0.099038        -0.516532
 H        -0.124295        -1.584147         0.326916
 H         2.784264        -0.033332         2.029224
 H         3.225534        -1.350443         0.804330
 H         4.781231         2.194087         0.101568
 H         5.190783         0.872096         1.179042
 H         3.390505         1.170582        -2.031499
 H         1.620658        -0.779259        -2.095225
 H         2.669180        -1.765717        -0.999570
