19
Iteration:  3744charge 0 multiplicity 1
 C        -0.050124        -0.478238         0.247052
 C         1.435038        -0.157085         0.059834
 C         2.543370        -0.401386         1.045654
 C         3.152881         0.822181         0.194316
 C         4.673418         1.253463         0.074455
 O         4.769692         0.151863        -0.851078
 C         3.379014         0.339739        -1.181121
 C         2.236069        -0.732244        -1.255792
 O         1.671177         1.342019         0.142102
 H        -0.277251         0.056833         1.134008
 H        -0.581558        -0.354766        -0.709896
 H        -0.312560        -1.547214         0.435892
 H         2.311261        -0.100953         2.001372
 H         3.084762        -1.404359         0.972608
 H         4.773564         2.253123        -0.371166
 H         5.192308         1.066099         1.122501
 H         3.292034         1.115951        -1.943704
 H         1.594513        -0.600185        -2.217987
 H         2.759014        -1.660089        -1.119232
