19
Iteration:   321charge 0 multiplicity 1
 C         0.052648        -0.715327         0.349214
 C         1.393560        -0.085787         0.014630
 C         2.474750        -0.391781         1.035302
 C         3.200095         0.717218         0.258250
 C         4.658054         1.165294         0.178881
 O         4.845942         0.235939        -0.903076
 C         3.305064         0.291317        -1.182987
 C         2.117445        -0.589968        -1.315567
 O         1.732683         1.478141         0.037811
 H        -0.150922        -0.228812         1.302678
 H        -0.748802        -0.511732        -0.454653
 H         0.181557        -1.758505         0.575000
 H         2.175583        -0.167249         2.038652
 H         2.937590        -1.390351         1.005345
 H         4.817951         2.221838        -0.087498
 H         5.389044         0.954915         0.958862
 H         3.272838         1.133894        -1.822532
 H         1.597853        -0.187359        -2.198745
 H         2.179239        -1.693358        -1.358901
