19
Iteration:  1715charge 0 multiplicity 1
 C        -0.046385        -0.516438         0.163315
 C         1.467840        -0.231065        -0.015246
 C         2.671892        -0.368038         1.051562
 C         3.120011         0.840573         0.197203
 C         4.554877         1.253137         0.187694
 O         4.789169         0.116769        -0.830663
 C         3.329025         0.317354        -1.223520
 C         2.121320        -0.679241        -1.281255
 O         1.788357         1.377259         0.201560
 H        -0.242714        -0.101291         1.192625
 H        -0.723006        -0.042264        -0.568792
 H        -0.144915        -1.669437         0.197714
 H         2.261859        -0.117417         2.019265
 H         3.239466        -1.311232         1.063296
 H         4.544895         2.275398        -0.314903
 H         5.154332         1.133313         1.075962
 H         3.445187         1.200628        -1.875349
 H         1.526223        -0.392018        -2.200610
 H         2.405898        -1.794321        -1.305676
