19
Iteration:  1582
 C         0.117823        -0.617528         0.278971
 C         1.443170        -0.072847         0.013331
 C         2.580023        -0.379333         0.992541
 C         3.168736         0.750393         0.253927
 C         4.552892         1.237529         0.131664
 O         4.859436         0.073324        -0.785319
 C         3.322678         0.249728        -1.137459
 C         2.111095        -0.490285        -1.353835
 O         1.687272         1.348922         0.093824
 H        -0.179687        -0.544071         1.462911
 H        -0.695552        -0.000914        -0.178420
 H        -0.260568        -1.735244        -0.178041
 H         2.380448         0.129139         1.945744
 H         2.983686        -1.373704         1.097656
 H         4.732839         2.326947        -0.426989
 H         4.995376         1.330250         1.088497
 H         3.272866         1.145409        -1.940544
 H         1.501364        -0.118003        -2.276668
 H         2.298156        -1.570356        -1.504557
