19
Iteration:  4589
 C        -0.039717        -0.520956         0.344172
 C         1.432043        -0.240906         0.017045
 C         2.558806        -0.380313         1.087907
 C         3.139605         0.858013         0.223208
 C         4.626332         1.214349         0.200719
 O         4.824394         0.129072        -0.829171
 C         3.323526         0.329363        -1.149848
 C         2.135451        -0.609547        -1.389418
 O         1.760681         1.340826         0.022916
 H        -0.416430         0.191230         1.016983
 H        -0.565698        -0.406615        -0.631104
 H        -0.031767        -1.609635         0.677350
 H         2.416418         0.063092         2.060832
 H         3.118736        -1.366108         1.064520
 H         4.928752         2.023559        -0.507604
 H         5.294563         1.230458         1.103900
 H         3.343364         1.085446        -1.928099
 H         1.517188        -0.395346        -2.356163
 H         2.249114        -1.653517        -1.432174
