19
Iteration:  4001charge 0 multiplicity 1
 C         0.052353        -0.597026         0.250114
 C         1.428848        -0.176711        -0.009855
 C         2.591678        -0.327651         1.077573
 C         3.114881         0.785196         0.213840
 C         4.610281         1.303885         0.094763
 O         4.847180         0.083170        -0.733679
 C         3.340411         0.305050        -1.171966
 C         2.082297        -0.620870        -1.347641
 O         1.737422         1.356459         0.098275
 H        -0.090401        -0.290584         1.266868
 H        -0.749037        -0.247437        -0.381555
 H         0.018567        -1.695393         0.228854
 H         2.050658        -0.027742         2.043320
 H         3.258807        -1.166572         1.034248
 H         4.553604         2.274624        -0.531487
 H         5.338828         1.231079         0.875745
 H         3.210214         1.143490        -1.867877
 H         1.575052        -0.134053        -2.225485
 H         2.162787        -1.704973        -1.381729
