19
Iteration:   514charge 0 multiplicity 1
 C        -0.032401        -0.629379         0.336345
 C         1.423921        -0.088267        -0.011306
 C         2.564704        -0.489547         1.025963
 C         3.166042         0.749494         0.244484
 C         4.566355         1.314423         0.110777
 O         4.792455         0.128310        -0.756948
 C         3.430731         0.330942        -1.232624
 C         2.083518        -0.470147        -1.386067
 O         1.821840         1.306462         0.158450
 H        -0.348143        -0.312895         1.227197
 H        -0.809456        -0.435950        -0.463238
 H         0.133076        -1.778140         0.397229
 H         2.213459        -0.339940         2.058224
 H         3.075024        -1.467908         0.939860
 H         4.451591         2.215797        -0.572381
 H         5.237603         1.463294         0.865050
 H         3.462312         1.020796        -1.985437
 H         1.579697         0.114457        -2.197495
 H         2.075643        -1.563881        -1.564466
