19
Iteration:   158
 C        -0.022091        -0.519296         0.256357
 C         1.465093        -0.180656         0.076931
 C         2.731729        -0.325535         1.016735
 C         3.081619         0.846585         0.190626
 C         4.607940         1.194534         0.186176
 O         4.696892         0.106388        -0.800045
 C         3.348406         0.418587        -1.254192
 C         2.139219        -0.604607        -1.333769
 O         1.742776         1.246306         0.161362
 H        -0.695587        -0.107283         0.968882
 H        -0.453412        -0.411618        -0.803521
 H        -0.050861        -1.590572         0.369028
 H         2.503622        -0.050693         2.039379
 H         3.305423        -1.248179         0.988836
 H         4.884251         2.135857        -0.345417
 H         5.290617         1.073092         1.038401
 H         3.292653         1.242135        -1.989327
 H         1.410774        -0.462094        -2.213631
 H         2.579209        -1.697903        -1.321423
