19
Iteration:   279charge 0 multiplicity 1
 C        -0.016296        -0.486550         0.264831
 C         1.504109        -0.264574         0.108918
 C         2.727909        -0.386996         0.959442
 C         3.127794         0.797646         0.144457
 C         4.542740         1.201418         0.130447
 O         4.656989         0.135011        -0.785525
 C         3.297908         0.414843        -1.255532
 C         2.246459        -0.628640        -1.291587
 O         1.720898         1.323802         0.189832
 H        -0.501515         0.140124         1.076563
 H        -0.363447        -0.114597        -0.718909
 H        -0.354552        -1.463447         0.314154
 H         2.640981         0.006396         1.983634
 H         3.286219        -1.364216         0.866028
 H         4.739821         2.204725        -0.203056
 H         5.115159         0.971878         1.164144
 H         3.274655         1.111505        -2.015258
 H         1.422108        -0.428597        -2.095702
 H         2.850040        -1.691227        -1.394646
