19
Iteration:  3664
 C         0.043711        -0.549100         0.311670
 C         1.412846        -0.185799         0.054337
 C         2.627782        -0.336805         1.022177
 C         3.081991         0.909148         0.102810
 C         4.634722         1.227134         0.154309
 O         4.678496         0.056741        -0.703655
 C         3.328989         0.347077        -1.250331
 C         2.266191        -0.660809        -1.410752
 O         1.698408         1.313865         0.142789
 H        -0.347969        -0.049296         1.259119
 H        -0.491216         0.126607        -0.377260
 H        -0.171362        -1.614702         0.281345
 H         2.570748         0.075782         2.091191
 H         3.345305        -1.101265         1.139602
 H         4.870207         2.232559        -0.411077
 H         5.157256         1.209227         1.085293
 H         3.451527         0.978439        -2.102750
 H         1.776807        -0.598634        -2.369679
 H         2.373545        -1.721707        -1.257030
