19
Iteration:  3801
 C         0.004016        -0.568590         0.296025
 C         1.458604        -0.093668         0.062536
 C         2.538242        -0.386673         1.053796
 C         3.149529         0.850565         0.134973
 C         4.586567         1.252660         0.123741
 O         4.776685         0.164804        -0.787290
 C         3.425565         0.267949        -1.224813
 C         2.097710        -0.681568        -1.357739
 O         1.776570         1.344032         0.136957
 H        -0.477163        -0.141862         1.208338
 H        -0.742884        -0.161565        -0.373420
 H         0.096189        -1.637069         0.346946
 H         2.189176        -0.005523         2.019101
 H         2.853768        -1.449509         1.031328
 H         4.718344         2.257573        -0.274474
 H         5.164778         1.190303         1.119851
 H         3.426604         0.974150        -2.078527
 H         1.565549        -0.639147        -2.307305
 H         2.561810        -1.731704        -1.175769
