19
Iteration:  3890
 C        -0.019509        -0.563955         0.190657
 C         1.408627        -0.110313         0.081156
 C         2.643203        -0.439338         0.967102
 C         3.155752         0.889179         0.209373
 C         4.627825         1.256997         0.078783
 O         4.735221         0.139159        -0.774506
 C         3.347891         0.268649        -1.121760
 C         2.159781        -0.673592        -1.266151
 O         1.728571         1.383990         0.120464
 H        -0.315567        -0.209297         1.190965
 H        -0.790977        -0.285877        -0.444918
 H         0.108077        -1.617113         0.214517
 H         2.396303        -0.227860         2.041221
 H         3.043455        -1.367064         0.814916
 H         4.776173         2.190375        -0.536370
 H         5.307116         1.245449         0.927250
 H         3.411992         0.992285        -1.926030
 H         1.650864        -0.365583        -2.108685
 H         2.434090        -1.771386        -1.201388
