19
Iteration:  1437charge 0 multiplicity 1
 C         0.019763        -0.543705         0.330842
 C         1.417992        -0.265226         0.045110
 C         2.723430        -0.340583         0.958716
 C         3.077860         0.872627         0.130224
 C         4.561799         1.187018         0.210494
 O         4.789741         0.066730        -0.782841
 C         3.330617         0.404175        -1.172590
 C         2.188626        -0.606703        -1.385807
 O         1.676260         1.376618         0.107289
 H        -0.263808        -0.301080         1.298871
 H        -0.810702         0.058330        -0.261510
 H        -0.292144        -1.623499         0.125150
 H         2.653625        -0.083250         2.000065
 H         3.378326        -1.197941         0.929558
 H         5.044293         2.113012        -0.071523
 H         4.843750         0.802656         1.099018
 H         3.392590         1.225443        -1.950027
 H         1.437939        -0.466810        -2.183948
 H         2.644063        -1.629221        -1.408560
