19
Iteration:  4687charge 0 multiplicity 1
 C        -0.007942        -0.544516         0.351258
 C         1.441335        -0.148217        -0.000717
 C         2.534966        -0.294034         1.006578
 C         3.099799         0.856192         0.175775
 C         4.659901         1.155786         0.183991
 O         4.817183         0.169886        -0.809466
 C         3.357355         0.254327        -1.192274
 C         2.191640        -0.679045        -1.391304
 O         1.725192         1.362432         0.102659
 H         0.020004        -0.425677         1.448409
 H        -0.695236         0.200416        -0.071533
 H        -0.154879        -1.630797         0.022227
 H         2.057810        -0.017089         1.924427
 H         2.880575        -1.339625         1.047923
 H         4.687280         2.125990        -0.199539
 H         5.307039         1.151576         1.055340
 H         3.277337         1.149016        -1.835057
 H         1.634349        -0.762070        -2.345466
 H         2.314142        -1.690019        -1.167938
