19
Iteration:  4109charge 0 multiplicity 1
 C         0.030164        -0.528044         0.234282
 C         1.489637        -0.144959        -0.010750
 C         2.514402        -0.353054         1.111278
 C         3.141456         0.790030         0.196910
 C         4.570004         1.274969         0.153784
 O         4.865834         0.225054        -0.896812
 C         3.356111         0.266733        -1.197850
 C         2.095803        -0.751568        -1.268049
 O         1.760819         1.337581         0.165870
 H        -0.434939        -0.022179         1.122723
 H        -0.554692        -0.184858        -0.666474
 H        -0.265523        -1.624166         0.351364
 H         2.253645        -0.029403         2.154715
 H         2.765165        -1.362951         1.116750
 H         4.763483         2.308312        -0.280681
 H         5.197823         1.118800         1.023077
 H         3.536825         0.928148        -2.052931
 H         1.545764        -0.456858        -2.219708
 H         2.130138        -1.841633        -1.315273
