19
Iteration:  4043
 C         0.023096        -0.564666         0.281286
 C         1.483731        -0.182517        -0.043191
 C         2.703870        -0.268000         0.946319
 C         3.106690         0.932261         0.165639
 C         4.564941         1.195848         0.205437
 O         4.738517         0.124432        -0.722475
 C         3.366710         0.276198        -1.255949
 C         2.121895        -0.702544        -1.354896
 O         1.704241         1.356845         0.185555
 H        -0.251644        -0.271107         1.331625
 H        -0.552396        -0.106284        -0.526653
 H        -0.164826        -1.669274         0.260906
 H         2.396898         0.014999         2.016200
 H         3.324868        -1.086431         0.941902
 H         4.929920         2.117784        -0.364087
 H         4.961098         1.059413         1.236099
 H         3.368629         0.994204        -2.099262
 H         1.362389        -0.702883        -2.133108
 H         2.416081        -1.804327        -1.233403
