19
Iteration:  2774charge 0 multiplicity 1
 C         0.046219        -0.576523         0.223524
 C         1.405655        -0.061607         0.050442
 C         2.635189        -0.334203         1.011748
 C         3.133620         0.820375         0.151419
 C         4.616408         1.239925         0.171793
 O         4.813810         0.110246        -0.824868
 C         3.380191         0.235403        -1.180590
 C         2.095860        -0.682533        -1.275590
 O         1.689606         1.373983         0.130412
 H        -0.541368        -0.412636         1.206474
 H        -0.635137        -0.101970        -0.551270
 H        -0.188472        -1.635006         0.206568
 H         2.448887        -0.008273         2.060773
 H         3.220889        -1.207906         0.985449
 H         4.685177         2.283685        -0.205851
 H         5.169764         1.194821         1.054379
 H         3.389392         0.994514        -1.980649
 H         1.719431        -0.259223        -2.205671
 H         2.248230        -1.803694        -1.119113
