19
Iteration:  2700charge 0 multiplicity 1
 C        -0.007060        -0.482584         0.256716
 C         1.439971        -0.266801         0.079541
 C         2.700353        -0.343726         0.962883
 C         3.098752         0.856827         0.197582
 C         4.724642         1.215523         0.226542
 O         4.754959         0.135700        -0.779606
 C         3.322939         0.336491        -1.237042
 C         2.136440        -0.665305        -1.291129
 O         1.677451         1.345855         0.052556
 H        -0.453092         0.131628         1.148290
 H        -0.530958        -0.445791        -0.716100
 H        -0.423972        -1.429921         0.548510
 H         2.460197        -0.040300         2.040165
 H         3.192101        -1.427520         0.814740
 H         4.980979         2.255408        -0.209629
 H         5.229529         1.053674         1.161231
 H         3.165979         1.058238        -2.029892
 H         1.362740        -0.450606        -2.043442
 H         2.434299        -1.732304        -1.250011
