19
Iteration:    55charge 0 multiplicity 1
 C        -0.044931        -0.563470         0.262294
 C         1.470371        -0.187188         0.128021
 C         2.635900        -0.339982         1.032206
 C         3.149794         0.835176         0.176923
 C         4.675287         1.232633         0.204739
 O         4.730758         0.131739        -0.860728
 C         3.339306         0.401158        -1.234102
 C         2.175499        -0.673788        -1.322379
 O         1.682101         1.308857         0.122987
 H        -0.529147        -0.577016         1.233195
 H        -0.579680         0.122814        -0.317770
 H        -0.208494        -1.520548        -0.227237
 H         2.521727         0.124687         2.015962
 H         3.181052        -1.290120         0.939376
 H         4.875254         2.236664        -0.216709
 H         5.301046         0.958455         1.080108
 H         3.320528         1.068454        -2.007548
 H         1.548264        -0.458789        -2.170548
 H         2.474085        -1.686758        -1.322129
