19
Iteration:  1575
 C         0.089504        -0.594644         0.256021
 C         1.451761        -0.104701         0.025303
 C         2.627063        -0.355594         0.990547
 C         3.137004         0.768312         0.211494
 C         4.609941         1.195330         0.170998
 O         4.816370         0.106358        -0.782924
 C         3.302903         0.329782        -1.145781
 C         2.107670        -0.573897        -1.343826
 O         1.659791         1.352409         0.086902
 H        -0.089285        -0.481259         1.349651
 H        -0.551781         0.172276        -0.173059
 H        -0.083592        -1.608797        -0.044678
 H         2.351265        -0.042369         2.023139
 H         3.138593        -1.344028         1.030831
 H         4.553284         2.083333        -0.388910
 H         5.171006         1.157718         1.157506
 H         3.373032         1.075195        -1.935249
 H         1.648906        -0.197085        -2.183611
 H         2.286610        -1.649536        -1.502792
