19
Iteration:  2644
 C        -0.057400        -0.591589         0.330256
 C         1.419735        -0.194392        -0.006318
 C         2.578444        -0.344459         1.012149
 C         3.099794         0.830020         0.233243
 C         4.682994         1.262254         0.133260
 O         4.777813         0.102075        -0.811401
 C         3.388390         0.297048        -1.161308
 C         2.176515        -0.589410        -1.277416
 O         1.746164         1.341163         0.031954
 H        -0.237616        -0.392870         1.444125
 H        -0.780730         0.091881        -0.203877
 H        -0.201947        -1.613126        -0.000801
 H         2.157700        -0.013680         2.040047
 H         3.256552        -1.293641         1.006381
 H         4.877622         2.232062        -0.457089
 H         5.201573         1.187343         1.043345
 H         3.431802         1.172082        -1.781527
 H         1.600869        -0.322521        -2.172082
 H         2.178590        -1.693778        -1.442446
