19
Iteration:    86charge 0 multiplicity 1
 C         0.054124        -0.439646         0.317653
 C         1.509588        -0.251449        -0.005817
 C         2.645200        -0.360480         0.920013
 C         3.069228         0.870982         0.193966
 C         4.532149         1.167241         0.260207
 O         4.775851         0.177559        -0.887948
 C         3.359755         0.400237        -1.219120
 C         2.174558        -0.714545        -1.295733
 O         1.673175         1.279919         0.137887
 H        -0.267703         0.093746         1.364939
 H        -0.527664         0.056150        -0.367768
 H        -0.283687        -1.462578         0.389688
 H         2.376624        -0.133425         1.979798
 H         3.428621        -1.211504         0.959074
 H         4.740629         2.212985         0.019537
 H         5.123490         0.803739         1.214158
 H         3.325050         1.074103        -2.105856
 H         1.619234        -0.641071        -2.172685
 H         2.470693        -1.698594        -1.166669
