19
Iteration:  4465charge 0 multiplicity 1
 C        -0.045049        -0.488233         0.274404
 C         1.384547        -0.127079         0.023783
 C         2.588221        -0.430958         1.015348
 C         3.095733         0.815079         0.170609
 C         4.602609         1.222097         0.205253
 O         4.847080         0.177786        -0.889859
 C         3.366938         0.303551        -1.155340
 C         2.158700        -0.752965        -1.253591
 O         1.773726         1.410415         0.090107
 H        -0.455068        -0.037091         1.248413
 H        -0.590361        -0.221472        -0.654759
 H         0.116576        -1.597472         0.393583
 H         2.246213        -0.052765         2.027600
 H         3.158182        -1.392564         0.989303
 H         4.707449         2.095974        -0.377106
 H         5.038856         1.124727         1.263109
 H         3.330786         1.077689        -1.934710
 H         1.719935        -0.552154        -2.210958
 H         2.304624        -1.867124        -1.143884
