19
Iteration:  1732charge 0 multiplicity 1
 C        -0.050762        -0.486490         0.260617
 C         1.475619        -0.240638         0.050066
 C         2.690253        -0.361964         0.952978
 C         3.063263         0.921021         0.162544
 C         4.635115         1.198130         0.163051
 O         4.739564         0.111631        -0.779254
 C         3.348208         0.321093        -1.172443
 C         2.245592        -0.665701        -1.357447
 O         1.634764         1.316096         0.196206
 H        -0.443862        -0.179550         1.222607
 H        -0.421014         0.200947        -0.578106
 H        -0.399284        -1.463868         0.044560
 H         2.574566        -0.019970         2.011937
 H         3.356657        -1.243383         0.772181
 H         4.962273         2.144819        -0.284732
 H         5.220373         0.973851         1.117466
 H         3.417452         1.066116        -2.032322
 H         1.665130        -0.392918        -2.313646
 H         2.511713        -1.676470        -1.164529
