19
Iteration:   367charge 0 multiplicity 1
 C         0.066379        -0.485014         0.263158
 C         1.504585        -0.243314         0.033951
 C         2.718964        -0.401198         0.972840
 C         3.073623         0.986169         0.170627
 C         4.682317         1.188657         0.194093
 O         4.715549         0.133808        -0.793266
 C         3.369990         0.355818        -1.247622
 C         2.105749        -0.682363        -1.356474
 O         1.544505         1.311638         0.209181
 H        -0.106439        -0.142607         1.378317
 H        -0.412597         0.070974        -0.522617
 H        -0.194846        -1.488540         0.246271
 H         2.698741        -0.248269         2.075074
 H         3.396187        -1.273645         0.772085
 H         5.005675         2.083739        -0.226658
 H         5.361557         1.020085         1.164711
 H         3.383261         0.956424        -2.074781
 H         1.411029        -0.373177        -2.252202
 H         2.353128        -1.873523        -1.405233
