19
Iteration:   766
 C         0.075845        -0.464154         0.247908
 C         1.508497        -0.156135         0.065270
 C         2.687001        -0.393139         0.954210
 C         3.069194         0.891875         0.197813
 C         4.670541         1.265696         0.192706
 O         4.778588         0.065158        -0.845518
 C         3.362408         0.358264        -1.213743
 C         2.134799        -0.663584        -1.321306
 O         1.547371         1.242074         0.208954
 H        -0.363735        -0.027737         1.168475
 H        -0.358978         0.022720        -0.616011
 H        -0.166095        -1.560175         0.180186
 H         2.396801        -0.168004         1.991599
 H         3.346866        -1.229486         0.803043
 H         4.823214         2.244333        -0.308393
 H         5.071333         1.255272         1.140578
 H         3.267541         1.180678        -2.010923
 H         1.499414        -0.548787        -2.238663
 H         2.491962        -1.674179        -1.221572
