19
Iteration:  1864
 C        -0.028674        -0.488077         0.211832
 C         1.424087        -0.088312         0.039959
 C         2.617012        -0.434901         1.018798
 C         3.137756         0.789492         0.206601
 C         4.535653         1.256332         0.201886
 O         4.858063         0.154590        -0.858096
 C         3.314078         0.317435        -1.228210
 C         2.175791        -0.674501        -1.303153
 O         1.729518         1.315597         0.169031
 H        -0.418866         0.172125         1.099535
 H        -0.667705        -0.356995        -0.664577
 H        -0.094759        -1.572271         0.620665
 H         2.453473        -0.098209         2.079354
 H         3.085011        -1.466187         0.958605
 H         4.809478         2.260758        -0.271506
 H         5.177804         1.146804         1.051871
 H         3.374417         1.134499        -2.014578
 H         1.655599        -0.679817        -2.261323
 H         2.444105        -1.709986        -1.172563
