19
Iteration:   530
 C         0.100822        -0.602514         0.350071
 C         1.432314        -0.210310        -0.019876
 C         2.557466        -0.378798         0.956049
 C         3.104113         0.793666         0.247841
 C         4.542838         1.261887         0.159191
 O         4.931713         0.128076        -0.776574
 C         3.331401         0.244511        -1.172299
 C         2.021918        -0.507953        -1.517919
 O         1.749413         1.345598         0.194437
 H        -0.182530        -0.359415         1.511918
 H        -0.686289        -0.198979        -0.260723
 H        -0.030432        -1.648468         0.338808
 H         2.251337         0.064068         1.911559
 H         3.115472        -1.316784         1.017683
 H         4.673274         2.277353        -0.295356
 H         5.252715         1.174783         1.099237
 H         3.378041         1.245626        -1.863863
 H         1.474714         0.024584        -2.266811
 H         2.098214        -1.570116        -1.740536
