19
Iteration:  3500charge 0 multiplicity 1
 C        -0.000400        -0.531963         0.329397
 C         1.456985        -0.208091        -0.015947
 C         2.618095        -0.302907         0.935740
 C         3.077220         0.851733         0.164376
 C         4.615023         1.212544         0.158849
 O         4.823132         0.083904        -0.698131
 C         3.355387         0.309126        -1.192745
 C         2.164017        -0.629224        -1.310683
 O         1.686367         1.367481         0.043193
 H        -0.210863        -0.338476         1.431076
 H        -0.769003         0.087339        -0.161296
 H        -0.131122        -1.615900         0.263579
 H         2.401287        -0.210311         2.085656
 H         3.143430        -1.240860         0.834944
 H         4.848079         2.164685        -0.405258
 H         5.050858         1.313099         1.082425
 H         3.512236         1.068252        -1.938366
 H         1.386555        -0.646093        -2.095906
 H         2.508328        -1.735587        -1.274950
