19
Iteration:  1087
 C        -0.043934        -0.609850         0.338129
 C         1.417966        -0.124991         0.095847
 C         2.611982        -0.388998         1.015655
 C         3.129548         0.743464         0.159856
 C         4.594773         1.268590         0.171423
 O         4.745372         0.132159        -0.762461
 C         3.421004         0.381303        -1.209663
 C         2.176887        -0.538474        -1.419518
 O         1.761001         1.274551         0.087441
 H        -0.465610        -0.380477         1.312780
 H        -0.706945        -0.032689        -0.449184
 H        -0.090834        -1.681195        -0.001397
 H         2.306586        -0.093460         2.040681
 H         3.096330        -1.347458         0.888670
 H         4.817658         2.265498        -0.293154
 H         5.148941         1.153711         1.117841
 H         3.323242         1.212565        -1.898127
 H         1.547050        -0.359486        -2.235613
 H         2.552017        -1.537113        -1.327807
