19
Iteration:  3207
 C         0.030680        -0.431248         0.295080
 C         1.476589        -0.194931         0.017406
 C         2.605796        -0.372741         1.024133
 C         3.133118         0.822887         0.159520
 C         4.605094         1.218398         0.219033
 O         4.791456         0.206368        -0.776236
 C         3.313593         0.270037        -1.221495
 C         2.132755        -0.702423        -1.301307
 O         1.712377         1.299837         0.028227
 H        -0.081254         0.015725         1.301269
 H        -0.599978         0.033464        -0.430134
 H        -0.269283        -1.476438         0.207522
 H         2.266041         0.019783         2.007166
 H         3.156672        -1.253142         1.095308
 H         4.883804         2.135401        -0.218194
 H         5.149514         0.924833         1.163935
 H         3.130560         1.043060        -1.929915
 H         1.505531        -0.637799        -2.115901
 H         2.553466        -1.741700        -1.252040
