19
Iteration:  3110
 C        -0.042030        -0.488886         0.305598
 C         1.447485        -0.182429         0.002283
 C         2.621756        -0.289861         1.010279
 C         3.127012         0.811949         0.094001
 C         4.719241         1.221266         0.271403
 O         4.776174         0.153744        -0.811321
 C         3.335683         0.352787        -1.232799
 C         2.132744        -0.654584        -1.294461
 O         1.707198         1.251456         0.072469
 H        -0.377960         0.123947         1.244024
 H        -0.720268        -0.332376        -0.561971
 H        -0.056493        -1.601589         0.447080
 H         2.342058         0.103530         2.067768
 H         3.166412        -1.225102         1.112486
 H         5.046343         2.150333        -0.102527
 H         5.032333         0.883856         1.350893
 H         3.302586         0.879772        -2.109739
 H         1.528093        -0.471698        -2.113960
 H         2.229274        -1.753884        -1.220634
