19
Iteration:   110charge 0 multiplicity 1
 C        -0.112346        -0.545693         0.383120
 C         1.393111        -0.070577         0.035653
 C         2.551681        -0.480640         1.037830
 C         3.145338         0.731019         0.199313
 C         4.597686         1.271791         0.128710
 O         4.852721         0.242832        -0.799580
 C         3.328139         0.339105        -1.230360
 C         2.201407        -0.644610        -1.433852
 O         1.820634         1.304328         0.103240
 H        -0.562505        -0.064576         1.248383
 H        -0.846870        -0.476086        -0.372816
 H        -0.013994        -1.624436         0.643796
 H         2.418221        -0.226146         2.101149
 H         2.990224        -1.487109         1.003620
 H         4.830907         2.322295        -0.262251
 H         5.091792         1.116257         1.102128
 H         3.285616         1.093076        -1.919414
 H         1.675593        -0.459102        -2.364855
 H         2.430386        -1.666865        -1.313472
