19
Iteration:  2752charge 0 multiplicity 1
 C         0.005806        -0.600084         0.286677
 C         1.378332        -0.173955        -0.019248
 C         2.528982        -0.367762         1.015071
 C         3.122373         0.860920         0.226609
 C         4.638856         1.212843         0.139756
 O         4.835543         0.166326        -0.816400
 C         3.324122         0.345279        -1.176216
 C         2.092942        -0.714938        -1.296687
 O         1.870034         1.436933         0.068294
 H        -0.508950        -0.258798         1.258715
 H        -0.806330        -0.398406        -0.482528
 H        -0.019415        -1.692492         0.523586
 H         2.308627        -0.163175         2.088630
 H         2.741870        -1.391252         0.993209
 H         4.775180         2.288765        -0.082392
 H         5.105888         1.024711         1.041136
 H         3.243253         1.028166        -2.014814
 H         1.566756        -0.615642        -2.269530
 H         2.543103        -1.731146        -1.029946
