19
Iteration:  3022charge 0 multiplicity 1
 C        -0.042059        -0.563445         0.255755
 C         1.426076        -0.205527         0.041079
 C         2.633949        -0.332446         1.040992
 C         3.150663         0.869821         0.140720
 C         4.640820         1.255136         0.183008
 O         4.813271         0.116395        -0.825801
 C         3.362190         0.257695        -1.191048
 C         2.128760        -0.633228        -1.258873
 O         1.721605         1.368556         0.097983
 H        -0.540940        -0.332322         1.212546
 H        -0.548042        -0.121293        -0.598057
 H        -0.335339        -1.580603        -0.066808
 H         2.470320         0.078464         2.074892
 H         3.218737        -1.271888         0.935040
 H         4.748215         2.218960        -0.170346
 H         5.136654         1.103206         1.180684
 H         3.402434         0.961964        -1.955686
 H         1.546712        -0.384463        -2.102396
 H         2.070513        -1.724599        -1.230880
