19
Iteration:   954charge 0 multiplicity 1
 C        -0.052309        -0.451223         0.241855
 C         1.432891        -0.269624         0.002818
 C         2.603772        -0.361233         0.985606
 C         3.092975         0.863652         0.143884
 C         4.666818         1.170259         0.250444
 O         4.785657         0.216312        -0.845744
 C         3.314920         0.406178        -1.267111
 C         2.230592        -0.714430        -1.304668
 O         1.701455         1.276918         0.218713
 H        -0.407144        -0.048496         1.260480
 H        -0.545606        -0.093510        -0.669368
 H        -0.226805        -1.472606         0.337368
 H         2.488082        -0.138653         2.028619
 H         3.200003        -1.255556         0.838473
 H         5.176091         2.220392        -0.106523
 H         5.026520         0.965766         1.231332
 H         3.255145         1.207407        -2.030723
 H         1.566235        -0.762013        -2.114474
 H         2.522906        -1.753960        -1.203697
