19
Iteration:  4834
 C         0.014575        -0.460337         0.308978
 C         1.485880        -0.193264         0.012391
 C         2.602933        -0.376199         1.020536
 C         3.116989         0.824778         0.170936
 C         4.629920         1.169999         0.238481
 O         4.770493         0.127383        -0.834355
 C         3.335273         0.377838        -1.220673
 C         2.164558        -0.648628        -1.309131
 O         1.662023         1.316289         0.073766
 H        -0.381252         0.060902         1.331423
 H        -0.508992        -0.279417        -0.665359
 H         0.049717        -1.539327         0.393401
 H         2.288195        -0.095971         2.073039
 H         3.251183        -1.258453         1.138598
 H         4.884565         2.097059        -0.305966
 H         5.235699         1.087231         1.057416
 H         3.271680         1.218439        -1.902206
 H         1.668502        -0.495136        -2.289604
 H         2.442203        -1.742967        -1.149379
