19
Iteration:   818charge 0 multiplicity 1
 C         0.054580        -0.544627         0.282834
 C         1.430409        -0.060447        -0.025852
 C         2.437552        -0.445687         1.042901
 C         3.133948         0.718480         0.257342
 C         4.655561         1.237280         0.204374
 O         4.863208         0.301514        -0.947389
 C         3.372047         0.242417        -1.183936
 C         2.140087        -0.671764        -1.255098
 O         1.714381         1.347680         0.089878
 H        -0.139238        -0.122582         1.237351
 H        -0.805884        -0.278011        -0.437440
 H         0.119975        -1.720354         0.517244
 H         2.409526        -0.269044         2.128431
 H         2.797852        -1.461345         0.890486
 H         4.709355         2.406690        -0.033894
 H         5.301150         0.990027         1.168829
 H         3.252791         0.993724        -2.063336
 H         1.497219        -0.364799        -2.134566
 H         2.256706        -1.780163        -1.257343
