19
Iteration:  1694
 C         0.058628        -0.557470         0.247457
 C         1.385285        -0.031892         0.088360
 C         2.468719        -0.452086         1.040245
 C         3.167438         0.705986         0.222990
 C         4.635795         1.262851         0.134411
 O         4.816735         0.239576        -0.840732
 C         3.339770         0.249174        -1.200832
 C         2.123360        -0.624969        -1.301478
 O         1.777232         1.322948         0.114909
 H        -0.556437        -0.079036         1.097001
 H        -0.423289        -0.248025        -0.795606
 H         0.194956        -1.729296         0.272349
 H         2.298360        -0.045443         2.034028
 H         2.896129        -1.465038         1.095956
 H         4.665802         2.268998        -0.416057
 H         5.293329         1.054178         1.031812
 H         3.354372         1.229049        -1.785852
 H         1.674506        -0.373250        -2.281090
 H         2.280244        -1.747218        -1.237832
