19
Iteration:  1200charge 0 multiplicity 1
 C        -0.006551        -0.612085         0.329759
 C         1.374279        -0.133700         0.034099
 C         2.507826        -0.402854         0.982566
 C         3.091147         0.789280         0.202910
 C         4.631245         1.226359         0.169757
 O         4.937730         0.177672        -0.856388
 C         3.362466         0.349067        -1.160527
 C         2.067303        -0.593214        -1.312705
 O         1.791318         1.330115         0.092050
 H        -0.380077        -0.380741         1.243489
 H        -0.531443        -0.088227        -0.449839
 H        -0.005030        -1.765890         0.057804
 H         2.196044         0.028536         1.969596
 H         3.054400        -1.438619         0.995653
 H         4.625475         2.175778        -0.274155
 H         5.088977         1.262369         1.268271
 H         3.447613         1.106236        -1.858419
 H         1.532609        -0.356129        -2.296306
 H         2.307856        -1.658638        -1.205281
