19
Iteration:  4940charge 0 multiplicity 1
 C         0.000845        -0.489863         0.371104
 C         1.429603        -0.092986        -0.064262
 C         2.495064        -0.423805         1.001599
 C         3.120210         0.825858         0.226909
 C         4.587054         1.231932         0.226257
 O         4.786978         0.137713        -0.869542
 C         3.381075         0.290550        -1.217084
 C         2.263826        -0.648807        -1.317540
 O         1.724412         1.324538         0.089866
 H        -0.316791        -0.026258         1.251803
 H        -0.667396        -0.166079        -0.372302
 H        -0.010944        -1.546682         0.469416
 H         2.041364         0.052229         1.915845
 H         3.011929        -1.331758         1.038123
 H         4.842073         2.261343        -0.180277
 H         5.186919         0.911570         1.161717
 H         3.466306         0.930497        -2.157857
 H         1.630052        -0.623233        -2.141752
 H         2.629346        -1.688579        -1.065487
