19
Iteration:   908
 C        -0.058304        -0.679515         0.347190
 C         1.368330        -0.150055         0.023866
 C         2.510470        -0.394027         0.991149
 C         3.153035         0.836696         0.212947
 C         4.624496         1.236802         0.153898
 O         4.863114         0.158555        -0.773773
 C         3.390063         0.372174        -1.207254
 C         2.083126        -0.550572        -1.353149
 O         1.829965         1.313801         0.061740
 H        -0.232007        -0.578520         1.516100
 H        -0.751440        -0.170103        -0.283203
 H        -0.132519        -1.800881         0.264118
 H         2.179741        -0.030618         1.958159
 H         2.942884        -1.374781         1.082810
 H         4.797048         2.414492        -0.238674
 H         5.288228         1.143759         0.993591
 H         3.356223         1.214526        -1.978322
 H         1.494708        -0.398350        -2.270995
 H         2.446146        -1.552153        -1.502949
