19
Iteration:  3563charge 0 multiplicity 1
 C        -0.011821        -0.526418         0.237406
 C         1.408274        -0.171468         0.021470
 C         2.601996        -0.376231         1.001405
 C         3.123123         0.871619         0.191040
 C         4.642087         1.245130         0.158398
 O         4.711540         0.135789        -0.843886
 C         3.368507         0.288533        -1.168761
 C         2.262993        -0.716048        -1.232042
 O         1.694900         1.388523         0.116160
 H        -0.370929         0.081272         1.102993
 H        -0.647935        -0.141452        -0.589223
 H        -0.176982        -1.628703         0.373158
 H         2.253032        -0.262390         2.024527
 H         2.984046        -1.333698         0.771106
 H         5.055029         2.158481        -0.407296
 H         5.221088         1.093789         1.076559
 H         3.180399         1.089362        -1.842602
 H         1.748598        -0.698302        -2.123901
 H         2.832494        -1.643836        -1.075434
