19
Iteration:   185
 C         0.049604        -0.562530         0.259895
 C         1.465477        -0.168159         0.013722
 C         2.631500        -0.324159         0.996565
 C         3.062770         0.956345         0.196445
 C         4.711121         1.150145         0.166991
 O         4.781390         0.109584        -0.867664
 C         3.342551         0.374200        -1.233237
 C         2.202351        -0.678336        -1.287072
 O         1.562117         1.360935         0.196228
 H        -0.299348        -0.388177         1.404747
 H        -0.597718        -0.017508        -0.384435
 H        -0.147348        -1.663242         0.072090
 H         2.303988        -0.205208         2.050687
 H         3.151345        -1.307767         0.881046
 H         5.238645         2.082705        -0.066214
 H         5.161235         0.676255         1.070531
 H         3.268921         1.070376        -2.151090
 H         1.611873        -0.602539        -2.160006
 H         2.549510        -1.654049        -1.161734
