19
Iteration:   291charge 0 multiplicity 1
 C        -0.034423        -0.554044         0.240573
 C         1.439079        -0.169516         0.079564
 C         2.665911        -0.388578         1.073592
 C         3.135034         0.836296         0.166011
 C         4.655822         1.231888         0.186378
 O         4.743195         0.163159        -0.864574
 C         3.322134         0.360009        -1.280809
 C         2.177383        -0.619370        -1.339521
 O         1.690381         1.290162         0.187336
 H        -0.403493         0.060242         1.144893
 H        -0.654246        -0.294443        -0.579046
 H        -0.142236        -1.572069         0.510303
 H         2.431673        -0.029651         2.104749
 H         3.328298        -1.303990         1.109524
 H         4.990109         2.177436        -0.186139
 H         5.278039         0.873988         1.136384
 H         3.283793         1.128260        -2.027157
 H         1.567577        -0.371354        -2.293270
 H         2.376335        -1.799001        -1.421215
