19
Iteration:   166charge 0 multiplicity 1
 C        -0.061849        -0.558108         0.237067
 C         1.432464        -0.197137         0.067689
 C         2.760082        -0.302240         0.965050
 C         3.185341         0.835844         0.139701
 C         4.629828         1.169741         0.241977
 O         4.698183         0.070020        -0.829026
 C         3.309109         0.445892        -1.237562
 C         2.197128        -0.588803        -1.290704
 O         1.654755         1.279309         0.179735
 H        -0.527308        -0.127739         1.043177
 H        -0.606938        -0.197291        -0.700731
 H        -0.258566        -1.654094         0.344862
 H         2.657142         0.141813         1.951310
 H         3.437732        -1.107087         0.922524
 H         4.856469         2.110644        -0.374990
 H         5.168478         1.061312         1.112327
 H         3.326840         1.208458        -1.905029
 H         1.557747        -0.643103        -2.185773
 H         2.637923        -1.565710        -1.121621
