19
Iteration:  2603charge 0 multiplicity 1
 C         0.054687        -0.487539         0.263294
 C         1.477947        -0.213543        -0.011970
 C         2.616579        -0.324031         0.971960
 C         3.142678         0.924295         0.072941
 C         4.591530         1.179615         0.248459
 O         4.731208         0.157498        -0.813735
 C         3.365768         0.327957        -1.237013
 C         2.145418        -0.686984        -1.254730
 O         1.711719         1.309535         0.184685
 H        -0.175587        -0.314279         1.361676
 H        -0.685821         0.002412        -0.331374
 H        -0.244077        -1.462797         0.029783
 H         2.225517         0.190096         1.872483
 H         3.033946        -1.357007         1.054981
 H         5.048519         2.169196        -0.044478
 H         5.043909         0.660613         1.122572
 H         3.143967         0.882039        -2.212506
 H         1.633360        -0.701836        -2.208824
 H         2.482498        -1.691724        -1.042153
