19
Iteration:  2113
 C        -0.003437        -0.552245         0.273252
 C         1.417401        -0.201714         0.007874
 C         2.718069        -0.334262         0.919997
 C         3.102227         0.906875         0.129817
 C         4.603489         1.211446         0.197449
 O         4.758613         0.097563        -0.783637
 C         3.376084         0.273704        -1.184106
 C         2.156447        -0.637208        -1.307578
 O         1.699398         1.381920         0.152756
 H        -0.196317        -0.363104         1.398810
 H        -0.759220         0.087246        -0.129187
 H        -0.349129        -1.555178         0.090464
 H         2.465840        -0.149056         1.972566
 H         3.046801        -1.397764         0.831269
 H         4.898444         2.136549        -0.242005
 H         5.072492         1.026442         1.299071
 H         3.448610         1.152123        -1.973113
 H         1.552606        -0.386408        -2.199410
 H         2.376547        -1.738172        -1.223782
