19
Iteration:   822charge 0 multiplicity 1
 C         0.054482        -0.564078         0.266176
 C         1.406923        -0.069980         0.010922
 C         2.450102        -0.440843         1.028496
 C         3.125295         0.767723         0.227184
 C         4.670378         1.209168         0.190985
 O         4.849443         0.303992        -0.939256
 C         3.385373         0.209084        -1.194296
 C         2.171455        -0.648359        -1.254846
 O         1.690530         1.337100         0.115201
 H        -0.157326        -0.037465         1.316496
 H        -0.701630        -0.283714        -0.377246
 H         0.108465        -1.595311         0.452558
 H         2.245145        -0.263757         2.093808
 H         2.850543        -1.462876         1.002265
 H         4.751382         2.266158        -0.085665
 H         5.203926         1.019530         1.016402
 H         3.323035         1.052289        -1.938817
 H         1.683514        -0.311732        -2.169435
 H         2.214960        -1.706225        -1.254341
