19
Iteration:  3960charge 0 multiplicity 1
 C        -0.003933        -0.469816         0.308328
 C         1.422322        -0.172447        -0.023950
 C         2.668041        -0.408818         1.022832
 C         3.117071         0.839034         0.187170
 C         4.591070         1.133540         0.246213
 O         4.852310         0.212272        -0.866712
 C         3.268376         0.381856        -1.254907
 C         2.193883        -0.723074        -1.180951
 O         1.640292         1.327680         0.038920
 H        -0.380603         0.117836         1.101285
 H        -0.709246        -0.141608        -0.513419
 H        -0.166907        -1.568651         0.301662
 H         2.867748         0.068332         1.974172
 H         3.215174        -1.423410         0.781378
 H         4.820575         2.170478         0.046281
 H         5.060339         0.883797         1.186381
 H         3.413357         1.173682        -2.058932
 H         1.524218        -0.801665        -2.135904
 H         2.714818        -1.597327        -0.926422
