19
Iteration:  2394
 C        -0.008254        -0.450087         0.262926
 C         1.460299        -0.251772        -0.013394
 C         2.592979        -0.369730         1.106169
 C         3.125126         0.778994         0.231319
 C         4.625850         1.240871         0.180382
 O         4.793661         0.186989        -0.907589
 C         3.329739         0.335812        -1.188671
 C         2.116652        -0.663998        -1.287629
 O         1.736072         1.285824         0.089404
 H        -0.016029         0.097567         1.325329
 H        -0.657878         0.042344        -0.604308
 H        -0.240838        -1.512925         0.382842
 H         2.174603        -0.093832         2.097113
 H         3.187744        -1.337989         1.149002
 H         4.943182         2.241109        -0.254748
 H         5.019763         1.001011         1.131490
 H         3.379081         1.135591        -1.995474
 H         1.618745        -0.388341        -2.206956
 H         2.533760        -1.711807        -1.257853
