19
Iteration:  2634
 C        -0.066147        -0.532262         0.334066
 C         1.457784        -0.217894         0.061080
 C         2.661050        -0.297406         1.045561
 C         3.108675         0.910338         0.183069
 C         4.595859         1.179466         0.148971
 O         4.819385         0.093831        -0.827605
 C         3.357147         0.321686        -1.094321
 C         2.148897        -0.610859        -1.374472
 O         1.697411         1.320515        -0.004136
 H        -0.373996        -0.638247         1.441545
 H        -0.679652         0.155638        -0.279533
 H        -0.148820        -1.528044         0.030700
 H         2.434367        -0.206769         2.183669
 H         3.089451        -1.401912         0.999676
 H         4.900617         2.259558        -0.144565
 H         5.144248         0.928045         1.024101
 H         3.276364         1.139142        -1.876253
 H         1.667923        -0.264384        -2.273683
 H         2.588279        -1.626811        -1.277183
