19
Iteration:   481charge 0 multiplicity 1
 C         0.015056        -0.487870         0.212911
 C         1.509526        -0.186723        -0.015475
 C         2.743528        -0.343771         0.990283
 C         3.129135         0.888806         0.209748
 C         4.620116         1.147296         0.239245
 O         4.728672         0.165930        -0.864158
 C         3.289680         0.388453        -1.250195
 C         2.118934        -0.684004        -1.329553
 O         1.668753         1.289903         0.284816
 H        -0.486548        -0.014391         0.914308
 H        -0.578760        -0.327524        -0.737814
 H        -0.205673        -1.608238         0.441281
 H         2.366709        -0.232872         2.017945
 H         3.530198        -1.096164         0.805587
 H         4.920021         2.190303        -0.164242
 H         5.170456         0.899476         1.086166
 H         3.248878         1.033531        -2.081803
 H         1.551691        -0.542208        -2.279330
 H         2.337729        -1.776228        -1.236883
