19
Iteration:   919charge 0 multiplicity 1
 C         0.044180        -0.604070         0.350067
 C         1.445927        -0.177761         0.020202
 C         2.489793        -0.380905         1.058845
 C         3.113230         0.759182         0.230470
 C         4.582074         1.212604         0.243559
 O         4.836572         0.187860        -0.859506
 C         3.358466         0.361609        -1.165447
 C         2.138628        -0.593307        -1.367949
 O         1.791148         1.345534        -0.009724
 H        -0.253153        -0.323890         1.475575
 H        -0.800955        -0.194106        -0.164789
 H         0.042701        -1.705380         0.078998
 H         2.243402        -0.227041         2.085042
 H         2.962828        -1.326922         0.865355
 H         4.702132         2.283913        -0.390705
 H         5.195027         1.051236         1.097162
 H         3.317790         1.269611        -1.869390
 H         1.505017        -0.148834        -2.141073
 H         2.307208        -1.658196        -1.396619
