19
Iteration:  4658charge 0 multiplicity 1
 C        -0.022709        -0.519468         0.268104
 C         1.448475        -0.188783         0.056482
 C         2.611592        -0.362897         1.052403
 C         3.119645         0.840274         0.206882
 C         4.634239         1.210188         0.182269
 O         4.813471         0.113397        -0.875594
 C         3.393167         0.293855        -1.152293
 C         2.143183        -0.562818        -1.266528
 O         1.721160         1.300713         0.010719
 H        -0.377723        -0.097135         1.285734
 H        -0.672463        -0.113036        -0.472780
 H        -0.076371        -1.589124         0.337361
 H         2.069009         0.079376         2.003768
 H         2.993568        -1.381268         1.113362
 H         4.656718         2.283769        -0.359731
 H         5.200959         1.098801         1.088120
 H         3.277150         1.178847        -1.781163
 H         1.494536        -0.380004        -2.122153
 H         2.283738        -1.751223        -1.254830
