19
Iteration:  3646charge 0 multiplicity 1
 C         0.077156        -0.487275         0.273259
 C         1.514908        -0.172303        -0.029493
 C         2.619728        -0.360730         0.970459
 C         3.064584         0.864462         0.201404
 C         4.517403         1.295430         0.114607
 O         4.760398         0.053893        -0.728241
 C         3.348292         0.288474        -1.212004
 C         2.172022        -0.669918        -1.273907
 O         1.731922         1.377794         0.131560
 H        -0.182081        -0.246287         1.267290
 H        -0.649661        -0.146481        -0.495366
 H         0.021659        -1.613252         0.320973
 H         2.296495        -0.230013         1.958561
 H         3.046879        -1.422243         1.007994
 H         4.718090         2.157894        -0.460379
 H         5.164714         1.190562         1.059184
 H         3.370296         1.080597        -2.008549
 H         1.435979        -0.573163        -2.184012
 H         2.459230        -1.717077        -1.274633
