19
Iteration:  2609charge 0 multiplicity 1
 C         0.035610        -0.475442         0.278139
 C         1.503714        -0.205389        -0.013306
 C         2.646694        -0.281737         0.967234
 C         3.122890         0.858456         0.054534
 C         4.633628         1.154022         0.275717
 O         4.710827         0.161778        -0.809939
 C         3.353224         0.336017        -1.287002
 C         2.166393        -0.697270        -1.244436
 O         1.662888         1.303783         0.151642
 H        -0.131436        -0.441614         1.352226
 H        -0.551867         0.266373        -0.370815
 H        -0.151112        -1.611459         0.068735
 H         2.249991         0.031847         1.971462
 H         3.086762        -1.309937         1.166393
 H         5.031283         2.169656         0.064327
 H         5.083205         0.805336         1.196397
 H         3.248936         1.075487        -2.069412
 H         1.518669        -0.451695        -2.123079
 H         2.415529        -1.763172        -0.926908
