19
Iteration:  4870
 C        -0.028581        -0.582740         0.203142
 C         1.362419        -0.101453         0.070523
 C         2.612250        -0.364149         1.012806
 C         3.147640         0.819201         0.193365
 C         4.590711         1.297968         0.147078
 O         4.829267         0.074128        -0.757842
 C         3.336149         0.235002        -1.239504
 C         2.117645        -0.610140        -1.285740
 O         1.815651         1.368681         0.164462
 H        -0.328537        -0.522458         1.238554
 H        -0.785860         0.022539        -0.350696
 H        -0.056242        -1.700256        -0.070721
 H         2.080412        -0.063277         1.847896
 H         3.307771        -1.273741         1.049534
 H         4.565939         2.064996        -0.618971
 H         5.286678         1.598580         0.992901
 H         3.325782         1.019925        -2.031300
 H         1.554195        -0.416139        -2.305999
 H         2.404775        -1.658195        -1.295897
