19
Iteration:  4490
 C        -0.049771        -0.545625         0.177153
 C         1.386532        -0.147263         0.047832
 C         2.631035        -0.342167         1.125440
 C         3.143330         0.790071         0.211351
 C         4.647855         1.307122         0.101174
 O         4.825579         0.128009        -0.823593
 C         3.334677         0.267238        -1.143090
 C         2.099971        -0.645343        -1.276078
 O         1.765059         1.297444         0.103043
 H        -0.241861        -0.211111         1.130410
 H        -0.572939         0.100018        -0.529402
 H        -0.172294        -1.647394         0.088221
 H         2.161097         0.095479         1.993515
 H         3.111477        -1.357731         1.250547
 H         4.582650         2.188571        -0.563299
 H         5.407739         1.205653         0.952911
 H         3.442785         1.004604        -1.918347
 H         1.548515        -0.247013        -2.222592
 H         2.289265        -1.668522        -1.401471
