19
Iteration:  4901
 C         0.017394        -0.474566         0.236130
 C         1.468354        -0.192457         0.061706
 C         2.693377        -0.338424         1.000544
 C         3.068784         0.883796         0.146877
 C         4.633127         1.216899         0.248127
 O         4.771524         0.143221        -0.826400
 C         3.376335         0.245087        -1.178624
 C         2.123362        -0.663996        -1.264646
 O         1.670191         1.306970         0.063742
 H        -0.330518        -0.396168         1.392404
 H        -0.618265         0.297210        -0.322841
 H        -0.323527        -1.510114        -0.119174
 H         2.277408        -0.044114         1.969846
 H         3.451145        -1.210329         1.090197
 H         5.053908         2.131837        -0.197347
 H         5.100780         1.079992         1.199737
 H         3.272295         0.947499        -2.025376
 H         1.553443        -0.379939        -2.236032
 H         2.254126        -1.754310        -1.377969
