19
Iteration:  1726
 C        -0.033401        -0.508534         0.220890
 C         1.406993        -0.262190         0.014260
 C         2.710721        -0.343345         0.948839
 C         3.081986         0.827667         0.200036
 C         4.582182         1.205000         0.171983
 O         4.737578         0.118709        -0.797293
 C         3.395834         0.312266        -1.175332
 C         2.238179        -0.629889        -1.312242
 O         1.678211         1.373270         0.213402
 H        -0.403434        -0.088885         1.194004
 H        -0.502250         0.119413        -0.550901
 H        -0.513111        -1.541062         0.091364
 H         2.559298         0.024623         1.953784
 H         3.524199        -1.072813         0.961289
 H         4.939475         2.149693        -0.338825
 H         5.244756         1.084415         1.020234
 H         3.169795         0.962334        -2.035365
 H         1.659697        -0.468543        -2.285688
 H         2.402902        -1.772884        -1.309170
