19
Iteration:  3776
 C        -0.017442        -0.480394         0.142784
 C         1.490856        -0.248511         0.079439
 C         2.732807        -0.322587         1.054634
 C         3.158906         0.796798         0.211645
 C         4.554726         1.245937         0.113099
 O         4.765752         0.132969        -0.826559
 C         3.357966         0.302587        -1.175975
 C         2.092063        -0.690386        -1.230611
 O         1.684467         1.321910         0.141134
 H        -0.415933         0.247776         0.813998
 H        -0.578410        -0.027710        -0.701400
 H        -0.302449        -1.522228         0.412718
 H         2.522405         0.065139         1.983970
 H         3.501357        -1.132900         0.946793
 H         4.736467         2.270512        -0.294425
 H         5.030864         1.191412         1.178005
 H         3.347674         0.966703        -2.017539
 H         1.498810        -0.380718        -2.176019
 H         2.344316        -1.722217        -1.342033
