19
Iteration:   304charge 0 multiplicity 1
 C         0.036339        -0.582758         0.301088
 C         1.434485        -0.161649        -0.020363
 C         2.569208        -0.313844         0.999653
 C         3.103395         0.860061         0.248457
 C         4.664271         1.172425         0.175615
 O         4.894063         0.179135        -0.953833
 C         3.381172         0.333880        -1.111192
 C         2.032424        -0.613891        -1.345143
 O         1.691101         1.293984         0.166737
 H        -0.492850        -0.101467         1.205712
 H        -0.578257        -0.498313        -0.535112
 H         0.127934        -1.693535         0.437994
 H         2.183108         0.016883         2.011620
 H         3.059929        -1.320973         1.009624
 H         4.873105         2.171449        -0.219866
 H         5.286489         0.977065         1.155893
 H         3.261152         1.185630        -1.885235
 H         1.391643        -0.402245        -2.252376
 H         2.201391        -1.750003        -1.143059
