19
Iteration:  4388charge 0 multiplicity 1
 C         0.066064        -0.586630         0.271420
 C         1.458719        -0.112907         0.024109
 C         2.531999        -0.350783         1.001012
 C         3.131724         0.856449         0.162150
 C         4.594425         1.269975         0.076021
 O         4.836472         0.070394        -0.695354
 C         3.306839         0.217160        -1.203443
 C         2.088535        -0.609426        -1.355632
 O         1.737580         1.420863         0.122541
 H        -0.193601        -0.387540         1.349593
 H        -0.533754        -0.343626        -0.587019
 H         0.224760        -1.659337         0.248075
 H         2.450044        -0.055938         2.086770
 H         2.975914        -1.338801         1.063244
 H         4.647690         2.311722        -0.236832
 H         5.186087         1.136191         1.052042
 H         3.555879         0.870449        -2.013118
 H         1.430480        -0.388885        -2.109872
 H         2.258813        -1.723890        -1.222207
