19
Iteration:  1868
 C        -0.014694        -0.497421         0.240985
 C         1.402583        -0.064155         0.040214
 C         2.593551        -0.457980         1.022453
 C         3.146005         0.752764         0.226552
 C         4.560717         1.249420         0.187441
 O         4.832763         0.191626        -0.855444
 C         3.348295         0.284113        -1.212352
 C         2.190435        -0.642305        -1.309624
 O         1.729909         1.326282         0.138347
 H        -0.438310         0.057926         1.049173
 H        -0.663714        -0.384384        -0.609873
 H        -0.173589        -1.547626         0.554322
 H         2.468235        -0.092134         2.033654
 H         3.100871        -1.424913         0.953094
 H         4.785337         2.230104        -0.297668
 H         5.200424         1.202673         1.074539
 H         3.391277         1.094262        -2.029111
 H         1.529585        -0.666391        -2.302172
 H         2.403868        -1.764361        -1.126929
