19
Iteration:  4333charge 0 multiplicity 1
 C         0.082661        -0.460947         0.288064
 C         1.500259        -0.206164        -0.002705
 C         2.604803        -0.332664         1.030179
 C         3.093668         0.929757         0.183174
 C         4.642996         1.213016         0.229479
 O         4.782148         0.108271        -0.861963
 C         3.370405         0.333595        -1.171241
 C         2.169347        -0.703678        -1.294244
 O         1.593752         1.250113         0.027806
 H        -0.175832        -0.109443         1.322576
 H        -0.537794         0.167916        -0.315454
 H        -0.204483        -1.451987         0.073311
 H         2.254930         0.146894         1.985097
 H         3.163273        -1.228103         1.218123
 H         4.960652         2.214954        -0.083224
 H         5.270836         0.936505         1.161847
 H         3.315077         1.132542        -1.890095
 H         1.443310        -0.530468        -1.984274
 H         2.251658        -1.810754        -1.129574
