19
Iteration:  1764
 C         0.025515        -0.596012         0.347006
 C         1.483944        -0.171855        -0.019282
 C         2.617192        -0.336851         0.970541
 C         3.128877         0.805730         0.162191
 C         4.572139         1.190999         0.246521
 O         4.775967         0.127226        -0.790158
 C         3.330175         0.324111        -1.197607
 C         2.132460        -0.583868        -1.343097
 O         1.733253         1.355649         0.055266
 H        -0.169678        -0.441916         1.414961
 H        -0.649901         0.145094        -0.234076
 H        -0.209561        -1.589559         0.019952
 H         2.389610         0.084118         1.982529
 H         3.134365        -1.319549         1.060636
 H         4.663935         2.212382        -0.126931
 H         5.190778         0.974725         1.176426
 H         3.473609         1.168180        -1.869828
 H         1.601328        -0.440784        -2.243893
 H         2.272369        -1.624608        -1.248009
