19
Iteration:  2562charge 0 multiplicity 1
 C        -0.007401        -0.531136         0.245966
 C         1.417250        -0.123451         0.004434
 C         2.537856        -0.435336         1.039481
 C         3.149699         0.785985         0.286680
 C         4.663559         1.294610         0.087118
 O         4.816823         0.132428        -0.846404
 C         3.347841         0.297584        -1.115337
 C         2.099814        -0.576195        -1.295433
 O         1.753556         1.270709         0.079350
 H        -0.347950         0.023077         1.117970
 H        -0.531532        -0.307215        -0.665340
 H        -0.021845        -1.646407         0.577696
 H         2.264907        -0.071628         1.995543
 H         3.042821        -1.342827         1.075761
 H         4.690780         2.197630        -0.427587
 H         5.373306         1.328980         0.984456
 H         3.391278         1.057603        -1.881610
 H         1.531690        -0.136896        -2.145358
 H         2.305928        -1.619523        -1.221608
