19
Iteration:   374charge 0 multiplicity 1
 C         0.042666        -0.456600         0.269742
 C         1.490327        -0.227347         0.101064
 C         2.742978        -0.408648         0.932858
 C         3.073785         0.977787         0.188418
 C         4.674560         1.259461         0.176255
 O         4.686234         0.119272        -0.779197
 C         3.373261         0.341328        -1.211143
 C         2.095111        -0.709705        -1.356577
 O         1.597107         1.245879         0.192413
 H        -0.348746        -0.093215         1.219911
 H        -0.479513         0.203859        -0.545051
 H        -0.130160        -1.559713         0.062314
 H         2.593781        -0.330994         1.990103
 H         3.480606        -1.146934         0.658369
 H         5.160264         2.182469        -0.316708
 H         5.221826         0.969775         1.012033
 H         3.538794         1.157018        -2.103731
 H         1.510845        -0.374738        -2.150766
 H         2.322949        -1.686960        -1.463316
