19
Iteration:  2123charge 0 multiplicity 1
 C         0.020238        -0.485863         0.326014
 C         1.480720        -0.175275         0.044561
 C         2.726789        -0.406955         0.958746
 C         3.041731         0.911736         0.179423
 C         4.598604         1.187773         0.219601
 O         4.793318         0.076394        -0.795638
 C         3.319897         0.337252        -1.206733
 C         2.157863        -0.624780        -1.326993
 O         1.608789         1.357470         0.086435
 H        -0.227298        -0.341788         1.419635
 H        -0.462149         0.194595        -0.398815
 H        -0.200143        -1.487136         0.093844
 H         2.548946        -0.247569         2.020971
 H         3.470416        -1.198093         0.692008
 H         5.165480         1.980943        -0.159080
 H         4.963590         1.028214         1.363376
 H         3.348498         0.970145        -2.209068
 H         1.644428        -0.539953        -2.327522
 H         2.483504        -1.743556        -1.309100
