19
Iteration:  3382charge 0 multiplicity 1
 C         0.015208        -0.457712         0.232429
 C         1.486654        -0.148328         0.067175
 C         2.662616        -0.402502         0.994355
 C         3.115309         0.873564         0.172199
 C         4.608539         1.251031         0.191233
 O         4.696663         0.119008        -0.816882
 C         3.314702         0.253866        -1.149324
 C         2.256526        -0.707758        -1.281823
 O         1.667177         1.351480         0.067717
 H        -0.426344         0.118581         1.077594
 H        -0.494993        -0.035594        -0.605403
 H        -0.095661        -1.494567         0.407287
 H         2.426438        -0.233187         2.104313
 H         3.258224        -1.287482         0.925900
 H         5.036066         2.080421        -0.399457
 H         5.033528         1.213623         1.256962
 H         3.140927         1.045903        -1.965295
 H         1.633511        -0.602631        -2.193706
 H         2.475984        -1.796743        -1.164477
