19
Iteration:  1632charge 0 multiplicity 1
 C         0.082199        -0.502826         0.260037
 C         1.461223        -0.123071         0.043704
 C         2.701897        -0.357871         0.975195
 C         3.040440         0.885130         0.175125
 C         4.552530         1.171922         0.263400
 O         4.769181         0.051658        -0.866952
 C         3.361123         0.399681        -1.232843
 C         2.141114        -0.615617        -1.312059
 O         1.663338         1.282138         0.151060
 H        -0.271316        -0.104213         1.116370
 H        -0.557304        -0.172078        -0.572905
 H        -0.018358        -1.487980         0.301918
 H         2.397597        -0.194780         2.021524
 H         3.402610        -1.199329         0.796443
 H         4.908897         2.075056        -0.030281
 H         4.993120         1.008811         1.303772
 H         3.320809         1.126065        -1.966551
 H         1.627289        -0.594840        -2.254762
 H         2.512531        -1.604492        -1.160259
