19
Iteration:  1904charge 0 multiplicity 1
 C        -0.015158        -0.561309         0.301860
 C         1.450689        -0.193796        -0.051737
 C         2.554551        -0.354048         1.085281
 C         3.126541         0.763781         0.220897
 C         4.611498         1.235110         0.210111
 O         4.869323         0.177961        -0.877041
 C         3.359568         0.300068        -1.190081
 C         2.109985        -0.614671        -1.384973
 O         1.730729         1.334771         0.095175
 H        -0.097005        -0.268378         1.308714
 H        -0.715905         0.152419        -0.297154
 H        -0.116095        -1.578351         0.187593
 H         2.245996         0.081634         2.026263
 H         3.168099        -1.175185         1.308291
 H         4.766831         2.157802        -0.202254
 H         5.025520         1.088995         1.307341
 H         3.310943         1.069390        -1.884521
 H         1.385143        -0.489755        -2.180937
 H         2.385250        -1.663794        -1.194836
