19
Iteration:   244
 C        -0.010776        -0.503717         0.315347
 C         1.421230        -0.131288         0.012776
 C         2.632221        -0.399357         0.957309
 C         3.157887         0.784069         0.216697
 C         4.632156         1.290282         0.096576
 O         4.806022         0.231683        -0.814233
 C         3.346904         0.239471        -1.169616
 C         2.156632        -0.688220        -1.335156
 O         1.690703         1.285804         0.202715
 H        -0.298507        -0.312255         1.269740
 H        -0.670898         0.158075        -0.388120
 H        -0.193457        -1.545627         0.021600
 H         2.372357        -0.100753         1.955096
 H         3.024613        -1.393476         0.923970
 H         4.711441         2.340359        -0.344026
 H         5.284399         1.137084         0.923373
 H         3.344086         0.945419        -1.902870
 H         1.586525        -0.327715        -2.217207
 H         2.187058        -1.793715        -1.406142
