19
Iteration:  2141charge 0 multiplicity 1
 C         0.076759        -0.445633         0.327142
 C         1.476648        -0.209829         0.033772
 C         2.692351        -0.314747         0.954073
 C         3.117227         0.857712         0.140914
 C         4.630020         1.133282         0.263353
 O         4.695973         0.136438        -0.768140
 C         3.340165         0.403086        -1.253927
 C         2.151264        -0.652687        -1.326229
 O         1.666067         1.234379         0.056612
 H        -0.159815        -0.129217         1.305703
 H        -0.627525         0.097856        -0.401091
 H        -0.286079        -1.503608         0.355577
 H         2.416901        -0.037630         1.976940
 H         3.138522        -1.299286         0.885386
 H         4.827471         2.231247        -0.006279
 H         5.177999         0.885697         1.092679
 H         3.372382         1.228101        -1.857604
 H         1.405708        -0.466115        -2.114050
 H         2.454231        -1.715716        -1.352536
