19
Iteration:  2235
 C        -0.002665        -0.400266         0.267354
 C         1.459075        -0.248285         0.013686
 C         2.680029        -0.329266         1.009617
 C         3.108822         0.902696         0.192854
 C         4.631882         1.209372         0.210250
 O         4.740754         0.098737        -0.840903
 C         3.383455         0.381153        -1.238011
 C         2.147328        -0.675105        -1.332753
 O         1.633973         1.234333         0.157758
 H        -0.307660        -0.072601         1.250876
 H        -0.568108         0.088652        -0.445764
 H        -0.297731        -1.471683         0.291297
 H         2.345561        -0.031573         2.026921
 H         3.316603        -1.243834         1.040395
 H         5.164608         2.053780        -0.162031
 H         5.210653         0.784540         1.086006
 H         3.440640         1.223447        -2.045328
 H         1.505846        -0.635502        -2.217338
 H         2.619671        -1.628307        -1.198969
