19
Iteration:  4018
 C         0.005898        -0.628344         0.300794
 C         1.434567        -0.115396         0.059807
 C         2.613029        -0.393960         1.004132
 C         3.119570         0.901784         0.185811
 C         4.573563         1.277406         0.100867
 O         4.815940         0.074859        -0.733049
 C         3.415779         0.286811        -1.186127
 C         2.104248        -0.515073        -1.264977
 O         1.706239         1.315879         0.044712
 H        -0.556730        -0.524698         1.289134
 H        -0.437379        -0.140743        -0.598007
 H        -0.032761        -1.711547         0.088826
 H         2.652814        -0.139644         2.033184
 H         2.990619        -1.460603         0.978000
 H         4.692964         2.126705        -0.504769
 H         5.226527         1.333809         1.049613
 H         3.551162         0.958532        -2.074141
 H         1.436658        -0.323590        -2.064302
 H         2.249063        -1.644097        -1.410320
