19
Iteration:  3655charge 0 multiplicity 1
 C         0.077371        -0.497080         0.308463
 C         1.507396        -0.181843         0.016820
 C         2.603857        -0.389784         1.021481
 C         3.079185         0.903712         0.128257
 C         4.539481         1.238751         0.106615
 O         4.668975         0.081824        -0.701222
 C         3.406928         0.312037        -1.231449
 C         2.184746        -0.691227        -1.328288
 O         1.725292         1.352324         0.152156
 H        -0.241717        -0.131612         1.303799
 H        -0.612955        -0.108555        -0.513714
 H        -0.054512        -1.594313         0.170087
 H         2.130161        -0.010506         1.902428
 H         3.284200        -1.229609         0.866537
 H         4.825713         2.163276        -0.501876
 H         5.198301         1.164106         1.031558
 H         3.448192         1.050683        -2.027697
 H         1.642256        -0.454689        -2.323411
 H         2.607067        -1.649762        -1.205257
