19
Iteration:  1854
 C        -0.026715        -0.438272         0.202691
 C         1.465475        -0.263627         0.020189
 C         2.641655        -0.341277         0.980434
 C         3.085787         0.860382         0.131941
 C         4.589530         1.238822         0.197763
 O         4.829839         0.110916        -0.826314
 C         3.312184         0.365428        -1.218888
 C         2.155320        -0.720097        -1.292739
 O         1.746734         1.313236         0.244690
 H        -0.501980         0.333288         0.971744
 H        -0.515465        -0.350453        -0.746476
 H        -0.055204        -1.580441         0.554665
 H         2.305019        -0.114402         2.032039
 H         3.235166        -1.340832         0.936035
 H         4.673445         2.350775        -0.209157
 H         5.012903         0.974676         1.105447
 H         3.103873         1.257897        -2.019826
 H         1.568662        -0.532049        -2.271756
 H         2.600457        -1.721720        -1.127408
