19
Iteration:  1258charge 0 multiplicity 1
 C        -0.004809        -0.575363         0.276299
 C         1.450915        -0.216621         0.041850
 C         2.708349        -0.367989         1.015894
 C         3.095026         0.870351         0.150643
 C         4.615573         1.151354         0.179201
 O         4.799961         0.054937        -0.733299
 C         3.301483         0.478597        -1.281566
 C         2.161797        -0.580850        -1.346375
 O         1.628972         1.320308         0.112643
 H        -0.162871        -0.160565         1.379918
 H        -0.551822         0.061495        -0.380688
 H        -0.298784        -1.544676         0.233062
 H         2.682057         0.006295         2.065478
 H         3.369046        -1.276764         0.977045
 H         4.820618         2.219693        -0.203872
 H         5.135966         1.058720         1.235905
 H         3.444351         1.244487        -2.016854
 H         1.458122        -0.609028        -2.239851
 H         2.621389        -1.639163        -1.378694
