19
Iteration:  2975
 C        -0.009417        -0.530318         0.400602
 C         1.385343        -0.198002         0.040843
 C         2.589448        -0.310834         0.948587
 C         3.075567         0.879911         0.164021
 C         4.606115         1.233375         0.215010
 O         4.786879         0.077953        -0.812518
 C         3.431273         0.306046        -1.178374
 C         2.252702        -0.663472        -1.363190
 O         1.693291         1.345999         0.079077
 H        -0.077246        -0.356523         1.482882
 H        -0.765645         0.047326        -0.212057
 H        -0.570297        -1.517256         0.121461
 H         2.108556         0.106284         1.795498
 H         3.159571        -1.264119         0.933564
 H         4.876647         2.133699        -0.357683
 H         5.259464         1.047951         1.149256
 H         3.494329         1.084525        -1.954514
 H         1.593614        -0.495295        -2.301965
 H         2.593646        -1.689549        -1.477277
