19
Iteration:  4135
 C        -0.057479        -0.487044         0.192964
 C         1.478747        -0.143377         0.044573
 C         2.714646        -0.361303         1.021217
 C         3.133168         0.778612         0.165541
 C         4.545036         1.282011         0.139451
 O         4.734531         0.109228        -0.801983
 C         3.294691         0.329126        -1.174972
 C         2.215034        -0.710466        -1.261292
 O         1.726403         1.357331         0.161164
 H        -0.617261        -0.130793         1.032845
 H        -0.511238        -0.189353        -0.765322
 H        -0.283085        -1.553624         0.268276
 H         2.580693        -0.059335         2.029363
 H         3.258068        -1.403186         0.910590
 H         4.848732         2.184601        -0.533200
 H         5.151039         1.214529         1.067169
 H         3.482735         1.161264        -1.835249
 H         1.442450        -0.774156        -2.114179
 H         2.711519        -1.681892        -1.159542
