19
Iteration:  2516charge 0 multiplicity 1
 C        -0.023696        -0.501956         0.271694
 C         1.459396        -0.102650         0.038623
 C         2.655421        -0.406734         0.952344
 C         3.131236         0.909350         0.170540
 C         4.554110         1.189968         0.224564
 O         4.746742         0.118317        -0.830096
 C         3.346607         0.365934        -1.267688
 C         2.136588        -0.686767        -1.255438
 O         1.725549         1.304184         0.122314
 H        -0.503819         0.042278         1.189380
 H        -0.543588        -0.383612        -0.683139
 H         0.069668        -1.517189         0.620074
 H         2.522026        -0.202253         2.023469
 H         3.233191        -1.287319         0.728385
 H         5.136878         2.064339        -0.054877
 H         5.015172         0.814969         1.154455
 H         3.402428         1.300740        -1.861573
 H         1.687820        -0.676594        -2.252916
 H         2.628347        -1.636287        -0.984875
