19
Iteration:  4340
 C         0.056682        -0.514060         0.284398
 C         1.486279        -0.150445         0.023965
 C         2.603919        -0.305030         1.038831
 C         3.069676         0.896669         0.162220
 C         4.667686         1.200335         0.208880
 O         4.790618         0.109399        -0.795125
 C         3.321263         0.320627        -1.232327
 C         2.163886        -0.705381        -1.258527
 O         1.603722         1.263314         0.036822
 H        -0.003934        -0.166197         1.335113
 H        -0.352083         0.247481        -0.469563
 H        -0.299380        -1.558895         0.019364
 H         2.362181        -0.097855         2.043250
 H         3.230905        -1.230450         1.126415
 H         5.195809         2.049394        -0.270775
 H         5.228701         1.155538         1.068781
 H         3.270055         1.300583        -1.834212
 H         1.498301        -0.370422        -2.190040
 H         2.447383        -1.728710        -1.253798
