19
Iteration:  4774charge 0 multiplicity 1
 C         0.036658        -0.534653         0.275787
 C         1.422710        -0.106797        -0.038198
 C         2.520222        -0.349064         1.029007
 C         3.167470         0.789989         0.203410
 C         4.603958         1.225433         0.184046
 O         4.807573         0.153599        -0.824335
 C         3.275691         0.293531        -1.187550
 C         2.187943        -0.635019        -1.313523
 O         1.806580         1.320785         0.112467
 H        -0.516189         0.039709         1.106874
 H        -0.756660        -0.536370        -0.485335
 H         0.037613        -1.621967         0.665898
 H         2.161099        -0.198578         2.038662
 H         3.056036        -1.337464         0.828830
 H         4.661375         2.138889        -0.411272
 H         5.208067         1.191317         1.219255
 H         3.111487         1.174084        -1.881849
 H         1.669526        -0.508037        -2.307856
 H         2.300303        -1.648405        -1.048486
