19
Iteration:  2492charge 0 multiplicity 1
 C         0.011784        -0.578570         0.335469
 C         1.463660        -0.201230        -0.012197
 C         2.561022        -0.317063         0.977485
 C         3.110350         0.854207         0.182999
 C         4.696544         1.138305         0.266437
 O         4.798391         0.162477        -0.832326
 C         3.315401         0.287169        -1.222804
 C         2.144891        -0.633095        -1.320198
 O         1.674650         1.379247         0.078393
 H        -0.226136        -0.168082         1.361359
 H        -0.598790        -0.077556        -0.465074
 H        -0.098856        -1.610075         0.435808
 H         2.223135        -0.032313         2.021638
 H         3.257489        -1.225512         0.869104
 H         4.908917         2.171321        -0.201874
 H         5.424434         0.985446         1.035173
 H         3.288603         1.231329        -1.875308
 H         1.684367        -0.321399        -2.238556
 H         2.248874        -1.735797        -1.195824
