19
Iteration:   205
 C         0.054922        -0.620023         0.296716
 C         1.444916        -0.118465         0.012954
 C         2.565539        -0.304349         1.034774
 C         3.147132         0.770623         0.224391
 C         4.611866         1.172340         0.228750
 O         4.759575         0.200097        -0.903172
 C         3.313217         0.315286        -1.153167
 C         2.119906        -0.641229        -1.338762
 O         1.780105         1.357197         0.043094
 H        -0.056504        -0.648039         1.492638
 H        -0.706829        -0.033984        -0.135154
 H        -0.061222        -1.662864        -0.019226
 H         2.240051         0.151601         2.003108
 H         3.073661        -1.302981         1.249087
 H         4.804989         2.197487        -0.001775
 H         5.303460         0.868543         1.122042
 H         3.078593         1.212660        -1.899908
 H         1.634146        -0.362381        -2.274752
 H         2.293887        -1.741244        -1.278066
