19
Iteration:  2641
 C        -0.079536        -0.573316         0.341918
 C         1.434757        -0.212724         0.003692
 C         2.608044        -0.330635         1.020722
 C         3.092093         0.852055         0.221338
 C         4.670466         1.249221         0.126419
 O         4.783580         0.099898        -0.820750
 C         3.374962         0.293062        -1.143239
 C         2.178802        -0.580444        -1.288512
 O         1.738803         1.334935         0.017968
 H        -0.280210        -0.445833         1.402460
 H        -0.758608         0.153715        -0.198529
 H        -0.114602        -1.683639        -0.020107
 H         2.227683        -0.115863         2.031351
 H         3.143931        -1.270709         1.025921
 H         4.871991         2.215990        -0.346554
 H         5.177215         1.131236         1.096898
 H         3.476175         1.195778        -1.714860
 H         1.632898        -0.311726        -2.229753
 H         2.239126        -1.712399        -1.420458
