19
Iteration:    67
 C         0.055015        -0.477071         0.231777
 C         1.460950        -0.194268         0.042864
 C         2.756754        -0.314919         1.043145
 C         3.074850         0.904845         0.164282
 C         4.663234         1.177148         0.207733
 O         4.723381         0.193369        -0.841319
 C         3.286519         0.283114        -1.188758
 C         2.172358        -0.710457        -1.374828
 O         1.601443         1.282260         0.158015
 H        -0.113560        -0.316003         1.235845
 H        -0.508440         0.263197        -0.353878
 H        -0.262988        -1.506719        -0.001808
 H         2.522151        -0.108467         2.089345
 H         3.385255        -1.184518         1.035443
 H         5.222889         2.111781        -0.060565
 H         5.072274         0.802410         1.117813
 H         3.163798         1.073584        -1.833160
 H         1.587554        -0.504727        -2.296066
 H         2.417397        -1.778078        -1.342732
