19
Iteration:  4003charge 0 multiplicity 1
 C         0.052642        -0.602422         0.243281
 C         1.436547        -0.175992         0.025680
 C         2.582661        -0.325155         1.068993
 C         3.117363         0.786997         0.227715
 C         4.606049         1.291844         0.081896
 O         4.846335         0.089132        -0.726222
 C         3.361916         0.296640        -1.188710
 C         2.073730        -0.609925        -1.335569
 O         1.733187         1.352239         0.085975
 H        -0.115216        -0.273499         1.237229
 H        -0.797182        -0.246315        -0.352428
 H         0.028777        -1.703293         0.199582
 H         2.019426        -0.058425         1.980156
 H         3.319312        -1.209796         0.957030
 H         4.568828         2.222656        -0.544218
 H         5.311734         1.280027         0.883896
 H         3.252336         1.203001        -1.867924
 H         1.511145        -0.097495        -2.214126
 H         2.189495        -1.644267        -1.337522
