19
Iteration:  4121charge 0 multiplicity 1
 C         0.027316        -0.481110         0.177237
 C         1.418235        -0.118348         0.121854
 C         2.603011        -0.371761         1.072156
 C         3.096196         0.808084         0.186525
 C         4.515612         1.243654         0.136053
 O         4.786814         0.170129        -0.828255
 C         3.375929         0.247098        -1.262872
 C         2.179709        -0.711363        -1.320342
 O         1.799783         1.319591         0.194581
 H        -0.431931         0.009668         1.040849
 H        -0.532729        -0.209402        -0.764488
 H         0.129733        -1.611305         0.289751
 H         2.329239         0.114316         2.018166
 H         3.235859        -1.247605         1.185545
 H         4.501972         2.331053        -0.287279
 H         5.144316         1.153835         0.999545
 H         3.059176         0.994711        -2.046957
 H         1.637954        -0.539042        -2.351700
 H         2.280296        -1.746146        -1.095056
