19
Iteration:   578
 C         0.025205        -0.539976         0.272126
 C         1.451745        -0.199328         0.036317
 C         2.736427        -0.383098         0.985258
 C         3.085792         0.853780         0.206756
 C         4.605288         1.078355         0.246400
 O         4.701174         0.165117        -0.880113
 C         3.297851         0.442740        -1.296953
 C         2.246591        -0.672548        -1.348147
 O         1.639053         1.406812         0.207668
 H        -0.192843        -0.392496         1.239194
 H        -0.607365         0.175508        -0.313590
 H        -0.351519        -1.624692         0.058452
 H         2.525967        -0.146438         2.037633
 H         3.390019        -1.269429         0.878781
 H         5.063517         1.993163        -0.021767
 H         4.962687         0.779658         1.223150
 H         3.249826         1.304027        -1.908845
 H         1.695739        -0.740838        -2.367539
 H         2.753435        -1.700392        -1.116178
