19
Iteration:   823
 C         0.054091        -0.567578         0.268288
 C         1.400424        -0.076557         0.021507
 C         2.456879        -0.437935         1.024477
 C         3.124693         0.781778         0.218261
 C         4.667843         1.203770         0.183049
 O         4.846644         0.302995        -0.935479
 C         3.389627         0.207371        -1.196471
 C         2.177834        -0.640665        -1.258677
 O         1.686033         1.334537         0.122237
 H        -0.169932        -0.034881         1.303323
 H        -0.695526        -0.279762        -0.387169
 H         0.099265        -1.562478         0.427950
 H         2.187660        -0.245143         2.081494
 H         2.879310        -1.471275         1.024316
 H         4.766676         2.203942        -0.102260
 H         5.211082         1.009705         1.016155
 H         3.331859         1.046466        -1.880585
 H         1.734265        -0.309434        -2.180195
 H         2.205168        -1.712764        -1.249622
