19
Iteration:  1398charge 0 multiplicity 1
 C         0.023648        -0.617052         0.325821
 C         1.446302        -0.121578        -0.045757
 C         2.547813        -0.369657         0.980732
 C         3.129682         0.793817         0.203507
 C         4.625677         1.238626         0.171601
 O         4.860992         0.139022        -0.778814
 C         3.339911         0.290910        -1.133711
 C         2.018375        -0.629018        -1.362970
 O         1.755197         1.394302         0.079198
 H         0.043459        -0.610921         1.476312
 H        -0.748359        -0.047025        -0.012131
 H        -0.010973        -1.639993        -0.173130
 H         2.314093        -0.089659         2.056494
 H         3.048590        -1.388193         1.003460
 H         4.807677         2.274399        -0.365718
 H         5.220036         1.152950         1.212292
 H         3.284659         1.235942        -1.715701
 H         1.584034        -0.307923        -2.321101
 H         2.349052        -1.661704        -1.466629
