19
Iteration:  4251charge 0 multiplicity 1
 C        -0.021357        -0.498036         0.259937
 C         1.484764        -0.268449         0.058030
 C         2.637795        -0.337811         1.093198
 C         3.066873         0.859791         0.116178
 C         4.641365         1.305561         0.192051
 O         4.727289         0.049728        -0.776533
 C         3.315737         0.330920        -1.245054
 C         2.218976        -0.625906        -1.295187
 O         1.749894         1.295996         0.091416
 H        -0.497463         0.111797         1.025434
 H        -0.347166        -0.212350        -0.801506
 H        -0.449731        -1.540260         0.520906
 H         2.360890        -0.065364         2.121574
 H         3.319557        -1.205228         1.130684
 H         4.794400         2.159524        -0.464859
 H         5.269388         1.254381         1.038225
 H         3.146107         1.155039        -2.050474
 H         1.319185        -0.325890        -1.996052
 H         2.648506        -1.581097        -1.535750
