19
Iteration:  4237charge 0 multiplicity 1
 C         0.003115        -0.514483         0.241644
 C         1.474661        -0.196272         0.061920
 C         2.686171        -0.311867         1.005754
 C         3.134063         0.886059         0.177225
 C         4.574589         1.201718         0.109456
 O         4.731570         0.081599        -0.741873
 C         3.372681         0.374686        -1.225417
 C         2.179241        -0.647708        -1.308028
 O         1.651143         1.272528         0.106340
 H        -0.227469         0.062028         1.157729
 H        -0.681721        -0.160262        -0.488313
 H        -0.134179        -1.554041         0.446815
 H         2.443035         0.223324         1.990821
 H         3.216947        -1.255752         1.065168
 H         4.882562         2.143637        -0.334234
 H         5.097074         0.990477         1.115227
 H         3.527245         1.108698        -1.993784
 H         1.663747        -0.483680        -2.227877
 H         2.318322        -1.767806        -1.140996
