19
Iteration:  2487charge 0 multiplicity 1
 C         0.007460        -0.572364         0.346777
 C         1.420816        -0.194976        -0.020412
 C         2.570571        -0.276364         0.996359
 C         3.143589         0.852263         0.218412
 C         4.633439         1.175346         0.227657
 O         4.792551         0.142264        -0.852200
 C         3.385031         0.292183        -1.197976
 C         2.126053        -0.622268        -1.343565
 O         1.708347         1.334508         0.087202
 H        -0.181223        -0.207312         1.327709
 H        -0.679736        -0.168982        -0.367145
 H        -0.204149        -1.730893         0.290967
 H         2.193309         0.031520         1.942582
 H         3.229386        -1.127835         1.037526
 H         4.907986         2.123719        -0.178719
 H         5.330055         0.868230         1.086181
 H         3.292681         1.135901        -1.829773
 H         1.686949        -0.228339        -2.298124
 H         2.293505        -1.688024        -1.328182
