19
Iteration:  3197
 C         0.027514        -0.457246         0.282796
 C         1.466817        -0.188241        -0.001068
 C         2.685890        -0.296989         1.009322
 C         3.057939         0.828026         0.151585
 C         4.586204         1.232937         0.230641
 O         4.743092         0.173610        -0.814929
 C         3.380347         0.246868        -1.188694
 C         2.153506        -0.671120        -1.262696
 O         1.714624         1.251886         0.029413
 H        -0.433421        -0.075607         1.271571
 H        -0.450574         0.205894        -0.451232
 H        -0.317052        -1.494726         0.185863
 H         2.567484        -0.063284         2.097861
 H         3.223182        -1.223775         0.942734
 H         5.020065         2.157845        -0.108363
 H         5.098925         0.969721         1.276474
 H         3.360632         0.993192        -1.911541
 H         1.568495        -0.361130        -2.061267
 H         2.067355        -1.767838        -1.169464
