19
Iteration:   172charge 0 multiplicity 1
 C        -0.072366        -0.598729         0.202982
 C         1.443152        -0.194329         0.067651
 C         2.740271        -0.319910         0.951136
 C         3.200910         0.874848         0.133606
 C         4.646055         1.177935         0.217681
 O         4.727325         0.047513        -0.850193
 C         3.279665         0.424107        -1.224705
 C         2.222173        -0.594165        -1.264377
 O         1.593053         1.323974         0.192328
 H        -0.285791         0.030954         1.260050
 H        -0.660688        -0.088181        -0.521661
 H        -0.299244        -1.665628         0.281354
 H         2.643875         0.139262         1.966888
 H         3.489382        -1.196881         0.935754
 H         4.937481         2.124965        -0.171157
 H         5.153784         0.929648         1.250685
 H         3.367644         1.304166        -2.045665
 H         1.679669        -0.676858        -2.200968
 H         2.647792        -1.603760        -1.065505
