19
Iteration:  3703charge 0 multiplicity 1
 C         0.058765        -0.597824         0.309244
 C         1.475641        -0.125047         0.053286
 C         2.586114        -0.310878         1.047601
 C         3.069669         0.836916         0.198563
 C         4.658836         1.213055         0.218904
 O         4.814968         0.203469        -0.819849
 C         3.332978         0.219680        -1.193540
 C         2.110706        -0.672111        -1.310012
 O         1.721251         1.367758        -0.012882
 H        -0.306768        -0.219291         1.308721
 H        -0.729876        -0.080810        -0.314718
 H        -0.018997        -1.693415         0.171586
 H         2.246240         0.170269         1.996703
 H         2.780681        -1.420556         0.858620
 H         5.048630         2.154674        -0.080512
 H         5.317226         0.855183         1.083308
 H         3.209531         0.973019        -2.044234
 H         1.507738        -0.320502        -2.161481
 H         2.185190        -1.837113        -1.213236
