19
Iteration:  3872
 C         0.048280        -0.560387         0.282737
 C         1.474171        -0.230209         0.021631
 C         2.674289        -0.293991         0.984665
 C         3.056533         0.896545         0.161879
 C         4.590278         1.238581         0.177413
 O         4.800162         0.053416        -0.773917
 C         3.369545         0.311771        -1.229379
 C         2.111618        -0.649003        -1.309162
 O         1.656445         1.376270         0.165823
 H        -0.455656        -0.164015         1.161977
 H        -0.378222         0.081067        -0.544743
 H        -0.170735        -1.662907         0.146943
 H         2.545591        -0.010530         2.087050
 H         3.448939        -1.115232         0.796517
 H         5.027718         2.148177        -0.241731
 H         5.072787         1.065892         1.113735
 H         3.403595         0.929809        -2.198914
 H         1.402237        -0.509652        -2.225921
 H         2.225674        -1.716062        -1.264400
