19
Iteration:  1620charge 0 multiplicity 1
 C        -0.031087        -0.591712         0.292987
 C         1.455351        -0.216152         0.006798
 C         2.656711        -0.364484         0.921616
 C         3.146277         0.872602         0.160280
 C         4.614477         1.246301         0.197553
 O         4.792986         0.093637        -0.773007
 C         3.324841         0.315108        -1.184422
 C         2.131453        -0.595101        -1.348165
 O         1.694947         1.404173         0.163376
 H        -0.346059        -0.288667         1.241116
 H        -0.632985        -0.084996        -0.497333
 H        -0.108895        -1.604250         0.212016
 H         2.477719        -0.153036         1.990330
 H         3.226440        -1.324980         0.821031
 H         4.938641         2.128295        -0.216480
 H         5.144384         0.832310         1.126580
 H         3.362919         1.110850        -1.859706
 H         1.541490        -0.439210        -2.181581
 H         2.339077        -1.654133        -1.267052
