19
Iteration:  4814
 C        -0.097785        -0.540848         0.306279
 C         1.431104        -0.155854         0.076427
 C         2.652717        -0.271376         0.999606
 C         3.113154         0.858354         0.161915
 C         4.597334         1.139589         0.284723
 O         4.810720         0.194660        -0.872857
 C         3.328808         0.320006        -1.256294
 C         2.178895        -0.674321        -1.327640
 O         1.733269         1.266355         0.068013
 H        -0.100478         0.229816         0.973254
 H        -0.683917        -0.306456        -0.613146
 H        -0.321471        -1.481727         0.801159
 H         2.460562        -0.058819         2.016338
 H         3.271698        -1.204062         1.108750
 H         5.062969         2.145460         0.189342
 H         4.955096         0.620494         1.167861
 H         3.371932         1.111612        -2.013241
 H         1.493237        -0.392967        -2.183891
 H         2.660974        -1.664208        -1.342599
