19
Iteration:   345
 C         0.015289        -0.622933         0.368133
 C         1.410671        -0.150197         0.035445
 C         2.578383        -0.330671         0.953351
 C         3.136899         0.833205         0.170433
 C         4.552071         1.182642         0.203606
 O         4.784515         0.126608        -0.865356
 C         3.342333         0.406510        -1.235559
 C         2.143249        -0.594076        -1.351430
 O         1.772289         1.319467         0.133078
 H        -0.258147        -0.313153         1.449020
 H        -0.647969        -0.289791        -0.409379
 H         0.089791        -1.663822         0.369807
 H         2.248812         0.064155         1.937322
 H         3.252120        -1.203861         1.109746
 H         4.941737         2.119355        -0.051318
 H         5.086328         0.838256         1.190457
 H         3.377830         1.254708        -1.812295
 H         1.530222        -0.478621        -2.325630
 H         2.648328        -1.673988        -1.301782
