19
Iteration:   748
 C        -0.005903        -0.618988         0.205342
 C         1.439518        -0.220091         0.027718
 C         2.723277        -0.348670         0.978127
 C         3.136065         0.896185         0.197939
 C         4.601942         1.235947         0.100904
 O         4.706439         0.088400        -0.722188
 C         3.297499         0.402641        -1.189868
 C         2.129262        -0.613601        -1.296829
 O         1.735428         1.357607         0.155500
 H        -0.307133        -0.395988         1.305376
 H        -0.677001        -0.133524        -0.474538
 H        -0.063053        -1.642776         0.128825
 H         2.549109        -0.196226         2.049537
 H         3.296633        -1.311564         0.902388
 H         4.890725         2.131875        -0.400916
 H         5.382997         0.975828         0.859617
 H         3.392400         1.147750        -1.895247
 H         1.604507        -0.344386        -2.205946
 H         2.323104        -1.683218        -1.304019
