19
Iteration:  4289charge 0 multiplicity 1
 C        -0.003612        -0.505060         0.275926
 C         1.370258        -0.077402         0.006408
 C         2.507988        -0.385478         1.008715
 C         3.173926         0.767781         0.195949
 C         4.585719         1.275042         0.173126
 O         4.845470         0.207109        -0.875627
 C         3.390793         0.242079        -1.232319
 C         2.114552        -0.742860        -1.214465
 O         1.753518         1.363607         0.132813
 H        -0.488543         0.011598         1.161357
 H        -0.639162        -0.383576        -0.576443
 H         0.155799        -1.544929         0.349581
 H         2.220253        -0.152416         2.058687
 H         2.941753        -1.386660         0.952968
 H         4.803240         2.273782        -0.239502
 H         5.281086         1.193135         1.086979
 H         3.379798         0.938622        -2.059628
 H         1.854985        -0.712344        -2.203245
 H         2.558203        -1.770525        -1.034071
