19
Iteration:  4976
 C        -0.047730        -0.554163         0.210867
 C         1.454740        -0.191219         0.064961
 C         2.643173        -0.350300         1.031644
 C         3.166555         0.872998         0.215911
 C         4.582026         1.283726         0.179019
 O         4.841445         0.097393        -0.793308
 C         3.339874         0.249621        -1.235151
 C         2.042751        -0.584155        -1.265294
 O         1.779351         1.340238         0.087019
 H        -0.654976         0.156459         0.899139
 H        -0.467102        -0.655709        -0.797923
 H        -0.194794        -1.541410         0.506085
 H         2.373373        -0.246238         2.092814
 H         3.158504        -1.344564         1.236052
 H         4.790912         2.381119        -0.151670
 H         5.165026         1.069264         1.020699
 H         3.354213         0.871845        -2.141396
 H         1.553693        -0.256129        -2.209451
 H         2.144748        -1.671544        -1.401806
