19
Iteration:  4122
 C         0.024127        -0.477519         0.176567
 C         1.416509        -0.120968         0.127159
 C         2.609251        -0.371167         1.064145
 C         3.096849         0.800554         0.184832
 C         4.515402         1.241631         0.135846
 O         4.779532         0.168115        -0.823767
 C         3.373777         0.242159        -1.261986
 C         2.189316        -0.704311        -1.319930
 O         1.796566         1.323990         0.193793
 H        -0.444603         0.004083         1.016842
 H        -0.547559        -0.217000        -0.756209
 H         0.143366        -1.593575         0.275752
 H         2.345916         0.103496         1.996701
 H         3.288750        -1.252294         1.201332
 H         4.521237         2.343952        -0.308105
 H         5.139631         1.173908         1.010627
 H         3.042905         1.002169        -2.017508
 H         1.602469        -0.554021        -2.353385
 H         2.318532        -1.728482        -1.088997
