19
Iteration:  1209charge 0 multiplicity 1
 C        -0.031959        -0.603115         0.305850
 C         1.422161        -0.173642         0.070820
 C         2.544237        -0.403033         0.966804
 C         3.141248         0.823393         0.190734
 C         4.542351         1.217950         0.153974
 O         4.912430         0.139964        -0.778624
 C         3.296946         0.316770        -1.195683
 C         2.084291        -0.539312        -1.298349
 O         1.832612         1.364701         0.075252
 H        -0.371249        -0.546365         1.292945
 H        -0.759063        -0.125996        -0.490531
 H         0.209644        -1.764089        -0.068755
 H         2.290708        -0.195737         2.030061
 H         3.195127        -1.309808         0.882001
 H         4.740512         2.134850        -0.335171
 H         5.010549         1.298995         1.112207
 H         3.240473         1.246635        -1.842691
 H         1.422082        -0.452828        -2.146392
 H         2.442647        -1.543969        -1.334430
