19
Iteration:  4154charge 0 multiplicity 1
 C         0.016556        -0.468370         0.214322
 C         1.432798        -0.270316         0.078742
 C         2.625568        -0.359132         0.957647
 C         3.059450         0.951450         0.220032
 C         4.723748         1.228704         0.128229
 O         4.751611         0.123924        -0.779458
 C         3.350400         0.297982        -1.189781
 C         2.205184        -0.645101        -1.252109
 O         1.640412         1.284058         0.105692
 H        -0.280467        -0.105773         1.214216
 H        -0.657288        -0.029195        -0.595872
 H        -0.216044        -1.601011         0.259587
 H         2.329252        -0.258202         1.995412
 H         3.474728        -1.039161         1.009690
 H         5.012648         2.225869        -0.396801
 H         5.387214         1.125391         0.949370
 H         3.226834         1.064656        -2.052151
 H         1.498823        -0.567972        -2.205996
 H         2.310960        -1.684642        -1.106448
