19
Iteration:  1610charge 0 multiplicity 1
 C        -0.044003        -0.651622         0.297694
 C         1.397701        -0.193395         0.006508
 C         2.599595        -0.385752         0.946086
 C         3.124880         0.854194         0.205678
 C         4.684403         1.216980         0.152894
 O         4.776131         0.148859        -0.721362
 C         3.360958         0.325311        -1.223430
 C         2.106285        -0.631047        -1.358317
 O         1.772440         1.419740         0.156668
 H        -0.261224        -0.414176         1.251920
 H        -0.753775        -0.110280        -0.356316
 H        -0.214667        -1.611077         0.145593
 H         2.427983        -0.021435         1.971395
 H         3.154287        -1.352946         0.895178
 H         4.856334         2.125559        -0.282395
 H         5.379271         1.290610         1.058783
 H         3.424044         0.929619        -2.063370
 H         1.555548        -0.179648        -2.166300
 H         2.225126        -1.686041        -1.566084
