19
Iteration:  1784charge 0 multiplicity 1
 C        -0.028591        -0.640760         0.362538
 C         1.410350        -0.155427        -0.014112
 C         2.458930        -0.354546         1.060706
 C         3.092188         0.810308         0.220770
 C         4.620875         1.246115         0.172222
 O         4.873410         0.160173        -0.837189
 C         3.394986         0.245890        -1.206623
 C         2.139111        -0.664027        -1.421284
 O         1.775590         1.475776         0.117627
 H        -0.152103        -0.597667         1.422897
 H        -0.942593        -0.196876        -0.288906
 H         0.156073        -1.655080         0.102677
 H         2.211888        -0.076157         2.086214
 H         3.151550        -1.175264         0.947222
 H         5.012691         2.074589        -0.296302
 H         5.138294         0.923496         1.183963
 H         3.481904         1.024582        -1.906753
 H         1.623724        -0.169072        -2.075072
 H         2.209080        -1.689994        -1.582172
