19
Iteration:  4837
 C         0.019956        -0.474413         0.305303
 C         1.485931        -0.168772         0.039041
 C         2.571066        -0.367346         1.013309
 C         3.110816         0.841679         0.201630
 C         4.630415         1.173919         0.206284
 O         4.775184         0.128499        -0.820448
 C         3.311591         0.343932        -1.227471
 C         2.176265        -0.671500        -1.317162
 O         1.674821         1.333284         0.084480
 H        -0.213075        -0.015264         1.184295
 H        -0.480620        -0.226662        -0.641744
 H         0.037264        -1.588161         0.373224
 H         2.243670        -0.261408         1.998875
 H         3.245149        -1.276414         1.106392
 H         4.841250         2.083256        -0.380840
 H         5.312008         1.112750         1.106074
 H         3.295160         1.210922        -1.930719
 H         1.645773        -0.389338        -2.301079
 H         2.522651        -1.685947        -1.216984
