19
Iteration:  2069charge 0 multiplicity 1
 C         0.044254        -0.561121         0.212127
 C         1.413396        -0.143413         0.009463
 C         2.521954        -0.356806         1.033482
 C         3.109667         0.766678         0.289448
 C         4.629504         1.240732         0.107176
 O         4.808599         0.128106        -0.885365
 C         3.393326         0.278375        -1.127456
 C         2.128732        -0.594153        -1.243118
 O         1.734012         1.342998         0.108636
 H        -0.399769        -0.318101         1.249852
 H        -0.626750        -0.144014        -0.555854
 H        -0.096976        -1.627066         0.242228
 H         2.350074         0.031217         2.053740
 H         3.212256        -1.241766         0.959783
 H         4.769399         2.221378        -0.315547
 H         5.423909         1.147249         1.000634
 H         3.363981         1.141416        -1.921169
 H         1.625073        -0.127780        -2.104016
 H         2.135086        -1.704237        -1.382352
