19
Iteration:  1380
 C        -0.071303        -0.598119         0.289814
 C         1.422737        -0.160610         0.086462
 C         2.606198        -0.417618         0.999869
 C         3.112729         0.822069         0.204253
 C         4.522960         1.248002         0.164190
 O         4.784728         0.120905        -0.818186
 C         3.421472         0.319418        -1.230535
 C         2.196127        -0.576951        -1.309342
 O         1.779235         1.388937         0.122905
 H        -0.425695        -0.597075         1.360932
 H        -0.645813         0.097572        -0.469881
 H        -0.162321        -1.578151        -0.012498
 H         2.418793        -0.078667         2.052757
 H         3.257051        -1.286534         0.820274
 H         4.694271         2.191021        -0.250229
 H         5.261392         1.059124         0.981467
 H         3.492582         0.974833        -2.090845
 H         1.578222        -0.361979        -2.216732
 H         2.305311        -1.727035        -1.330285
