19
Iteration:    58charge 0 multiplicity 1
 C        -0.019811        -0.546321         0.258397
 C         1.488138        -0.185413         0.121355
 C         2.664356        -0.335840         1.038619
 C         3.132611         0.843650         0.160403
 C         4.694411         1.227857         0.217828
 O         4.711970         0.147699        -0.855733
 C         3.331149         0.364010        -1.208951
 C         2.168298        -0.689062        -1.345871
 O         1.651838         1.306224         0.130396
 H        -0.440399        -0.501456         1.188781
 H        -0.647567         0.263297        -0.352556
 H        -0.239049        -1.574480        -0.183874
 H         2.597847         0.073959         2.038679
 H         3.197683        -1.237285         0.978717
 H         4.978062         2.243031        -0.159480
 H         5.220455         0.915690         1.050241
 H         3.275519         1.148296        -2.028294
 H         1.550331        -0.456134        -2.289408
 H         2.500118        -1.802871        -1.362471
