19
Iteration:  4156charge 0 multiplicity 1
 C         0.021244        -0.465317         0.228091
 C         1.448003        -0.262729         0.065076
 C         2.617434        -0.349223         0.965263
 C         3.048648         0.929880         0.211305
 C         4.729204         1.221318         0.127653
 O         4.750907         0.141018        -0.781478
 C         3.350793         0.278322        -1.179319
 C         2.205524        -0.635765        -1.261199
 O         1.625883         1.284109         0.105408
 H        -0.292081        -0.171714         1.215374
 H        -0.625821        -0.041858        -0.570313
 H        -0.193951        -1.558170         0.274109
 H         2.281969        -0.206022         1.960037
 H         3.508155        -1.050322         1.009983
 H         5.051939         2.213752        -0.435034
 H         5.409176         1.088625         0.985065
 H         3.309271         1.039289        -2.002646
 H         1.480653        -0.533239        -2.169458
 H         2.314007        -1.699322        -1.157006
