19
Iteration:  3238charge 0 multiplicity 1
 C        -0.094003        -0.524608         0.302297
 C         1.388736        -0.100938         0.010099
 C         2.489056        -0.378407         1.014347
 C         3.154501         0.787800         0.201247
 C         4.583604         1.220036         0.131175
 O         4.800969         0.185074        -0.871279
 C         3.437701         0.216595        -1.158148
 C         2.270604        -0.670194        -1.306115
 O         1.762519         1.366815         0.123699
 H        -0.279327         0.005107         1.183499
 H        -0.833243        -0.223271        -0.385384
 H        -0.063145        -1.530300         0.704411
 H         2.091854         0.012438         1.901837
 H         3.006560        -1.267094         0.986840
 H         4.765777         2.193802        -0.313121
 H         5.215477         1.170805         0.952545
 H         3.168540         1.065433        -1.883981
 H         1.826259        -0.644194        -2.259470
 H         2.652864        -1.733370        -1.095159
