19
Iteration:  2209charge 0 multiplicity 1
 C         0.004676        -0.512801         0.168136
 C         1.453277        -0.199322         0.084710
 C         2.633265        -0.349435         1.068721
 C         3.135211         0.855018         0.244093
 C         4.573746         1.188200         0.166224
 O         4.755013         0.125272        -0.879096
 C         3.352378         0.346989        -1.201444
 C         2.121055        -0.675485        -1.318850
 O         1.757042         1.348284         0.185538
 H        -0.540988         0.091517         0.981711
 H        -0.524980        -0.252002        -0.820736
 H        -0.195853        -1.554172         0.388287
 H         2.519028        -0.063822         2.105692
 H         3.173535        -1.269725         0.927776
 H         4.917007         2.061184        -0.416189
 H         5.286269         1.083465         1.061624
 H         3.344783         1.143475        -1.942918
 H         1.396254        -0.376069        -2.151075
 H         2.475707        -1.797010        -1.398527
