19
Iteration:  3112charge 0 multiplicity 1
 C        -0.050172        -0.494938         0.312725
 C         1.463014        -0.187158         0.003726
 C         2.631021        -0.299511         1.008353
 C         3.109442         0.825329         0.121382
 C         4.708691         1.217225         0.268055
 O         4.780264         0.150029        -0.808586
 C         3.338862         0.339782        -1.218538
 C         2.124094        -0.644893        -1.290104
 O         1.717904         1.265010         0.053342
 H        -0.323590         0.075610         1.240955
 H        -0.705687        -0.393846        -0.537610
 H        -0.080007        -1.550581         0.368529
 H         2.253172         0.122216         2.027989
 H         3.157780        -1.263852         1.105133
 H         5.038640         2.145530        -0.159279
 H         5.058486         0.892812         1.228025
 H         3.366585         0.965678        -2.112283
 H         1.407882        -0.501960        -2.096237
 H         2.286124        -1.719363        -1.279015
