19
Iteration:   809
 C         0.016946        -0.518478         0.320314
 C         1.413722        -0.126125        -0.022013
 C         2.509945        -0.447652         1.031492
 C         3.188902         0.693720         0.264120
 C         4.572667         1.248582         0.256008
 O         4.882826         0.295248        -0.927970
 C         3.346694         0.337461        -1.151342
 C         2.066704        -0.726627        -1.316862
 O         1.805671         1.364313         0.045610
 H        -0.383654        -0.110506         1.302147
 H        -0.725708        -0.352060        -0.480330
 H         0.047993        -1.688869         0.368931
 H         2.280822        -0.116211         2.055936
 H         2.952669        -1.405954         0.860470
 H         4.692419         2.367093        -0.094004
 H         5.307588         0.977371         1.015175
 H         3.078069         1.150670        -1.966358
 H         1.402540        -0.642734        -2.220179
 H         2.280382        -1.773219        -1.136453
