19
Iteration:  4787charge 0 multiplicity 1
 C         0.033783        -0.552917         0.278434
 C         1.436795        -0.119014        -0.030060
 C         2.559347        -0.396941         0.947488
 C         3.094602         0.807598         0.236189
 C         4.604767         1.219231         0.227206
 O         4.810066         0.182950        -0.876497
 C         3.403633         0.303697        -1.173166
 C         2.077759        -0.723761        -1.295922
 O         1.736122         1.404976         0.107491
 H        -0.174520         0.319876         1.079739
 H        -0.570348        -0.538793        -0.621784
 H         0.083869        -1.530148         0.804611
 H         2.277968        -0.045211         2.005887
 H         3.036545        -1.350285         1.096718
 H         4.893613         2.239221         0.042659
 H         5.226466         0.857293         1.072616
 H         3.362626         1.070638        -1.960328
 H         1.489285        -0.637324        -2.203446
 H         2.433245        -1.760271        -1.128137
