19
Iteration:  4372charge 0 multiplicity 1
 C        -0.011285        -0.652877         0.258844
 C         1.439142        -0.081130        -0.001962
 C         2.630999        -0.295100         0.977936
 C         3.085301         0.849524         0.141522
 C         4.535790         1.330861         0.196684
 O         4.762651         0.004296        -0.758889
 C         3.437309         0.253872        -1.233946
 C         2.117426        -0.659432        -1.265799
 O         1.795653         1.414981         0.169317
 H        -0.295616        -0.415177         1.305821
 H        -0.715449        -0.111122        -0.466244
 H        -0.075057        -1.779168         0.165539
 H         2.275302         0.064716         1.918652
 H         3.204813        -1.262071         1.030224
 H         4.789515         1.957481        -0.665171
 H         5.136410         1.370753         1.072808
 H         3.309229         1.093787        -2.003755
 H         1.712146        -0.382315        -2.334546
 H         2.239207        -1.711338        -1.290144
