19
Iteration:  4726charge 0 multiplicity 1
 C         0.039376        -0.470327         0.239216
 C         1.479584        -0.154516         0.114893
 C         2.730207        -0.370930         0.952310
 C         3.096057         0.897396         0.132153
 C         4.585842         1.214309         0.175168
 O         4.758645         0.130615        -0.722786
 C         3.360441         0.306359        -1.173703
 C         2.068465        -0.713525        -1.325770
 O         1.670185         1.301574         0.096841
 H        -0.463933        -0.452804         1.168361
 H        -0.578211         0.223429        -0.378940
 H        -0.144168        -1.457740        -0.172304
 H         2.463045         0.102665         1.951933
 H         3.423753        -1.240015         1.044856
 H         4.933421         2.210109        -0.336388
 H         5.203315         0.836276         1.045799
 H         3.375025         1.076182        -1.976778
 H         1.513186        -0.422356        -2.236627
 H         2.417258        -1.814818        -1.287789
