19
Iteration:  2874
 C         0.031384        -0.501559         0.257579
 C         1.481249        -0.226079         0.024485
 C         2.611579        -0.328928         1.115662
 C         3.117938         0.843310         0.253650
 C         4.597505         1.197339         0.176903
 O         4.818749         0.178093        -0.855387
 C         3.337214         0.296152        -1.180299
 C         2.131818        -0.690204        -1.325123
 O         1.706867         1.358020         0.029284
 H        -0.577524         0.081522         1.010986
 H        -0.702062        -0.376596        -0.533851
 H        -0.122226        -1.540641         0.516794
 H         2.392843        -0.022721         2.098384
 H         3.086499        -1.222095         1.211172
 H         4.938180         2.186644        -0.173054
 H         5.192335         0.881422         0.938338
 H         3.296979         1.055380        -1.943419
 H         1.547588        -0.427238        -2.235402
 H         2.164895        -1.789525        -1.376245
