19
Iteration:  4030charge 0 multiplicity 1
 C         0.000104        -0.603619         0.243335
 C         1.418254        -0.149958         0.105326
 C         2.695429        -0.362110         0.984004
 C         3.093720         0.867818         0.084882
 C         4.608459         1.339262         0.181726
 O         4.779436         0.042030        -0.723023
 C         3.343715         0.294540        -1.219215
 C         2.135687        -0.637516        -1.310554
 O         1.698162         1.372289         0.113131
 H        -0.404521        -0.283926         1.279657
 H        -0.783832        -0.183410        -0.419965
 H         0.030901        -1.702087         0.100614
 H         2.540533        -0.058367         2.026129
 H         3.266459        -1.250193         0.794831
 H         4.918282         2.265803        -0.266971
 H         5.203905         1.117438         1.129470
 H         3.375081         1.002160        -2.065054
 H         1.719462        -0.247710        -2.163738
 H         2.272159        -1.787614        -1.314265
