19
Iteration:  4416
 C        -0.085531        -0.540896         0.340585
 C         1.454504        -0.210984         0.001959
 C         2.608958        -0.288717         1.005963
 C         3.187378         0.852591         0.198479
 C         4.643361         1.266719         0.227002
 O         4.782493         0.061311        -0.828451
 C         3.369544         0.290682        -1.177841
 C         2.173295        -0.599200        -1.315413
 O         1.668415         1.305111         0.014297
 H        -0.236802         0.067087         1.233517
 H        -0.648878        -0.277946        -0.569650
 H        -0.190970        -1.587330         0.667286
 H         2.509986        -0.031078         2.042554
 H         3.258382        -1.194648         0.926762
 H         4.824901         2.321793        -0.110241
 H         5.084643         0.945823         1.139027
 H         3.450136         1.101685        -1.949365
 H         1.469028        -0.311129        -2.205170
 H         2.372668        -1.661386        -1.348727
