19
Iteration:  3876charge 0 multiplicity 1
 C         0.036624        -0.565997         0.269615
 C         1.486181        -0.203049         0.020302
 C         2.671382        -0.327093         0.993648
 C         3.020852         0.893880         0.138620
 C         4.619654         1.248048         0.147539
 O         4.801063         0.059038        -0.768221
 C         3.367339         0.284456        -1.218372
 C         2.134663        -0.637073        -1.279298
 O         1.658262         1.402280         0.166836
 H        -0.471196        -0.230467         1.200362
 H        -0.384541         0.022486        -0.611786
 H        -0.208594        -1.645823         0.189112
 H         2.521381        -0.202126         2.019888
 H         3.421867        -1.132036         0.777605
 H         4.953523         2.224422        -0.277010
 H         5.182459         1.038352         1.163330
 H         3.256169         0.975258        -2.045210
 H         1.535699        -0.514990        -2.200182
 H         2.129245        -1.750722        -1.280816
