19
Iteration:  3338charge 0 multiplicity 1
 C         0.019617        -0.580359         0.399751
 C         1.421287        -0.108327         0.021819
 C         2.532864        -0.328473         1.049038
 C         3.092052         0.837160         0.162463
 C         4.612225         1.301277         0.194010
 O         4.803485         0.114160        -0.764464
 C         3.380666         0.248216        -1.194619
 C         2.121360        -0.657859        -1.393650
 O         1.791377         1.343218        -0.007782
 H        -0.287999        -0.478589         1.445804
 H        -0.657957         0.003339        -0.186209
 H         0.033324        -1.590376         0.074805
 H         2.423922         0.057053         2.095206
 H         2.854109        -1.299945         1.218642
 H         4.822101         2.373475        -0.099050
 H         5.219009         0.819652         1.041392
 H         3.435718         0.887451        -2.139527
 H         1.663033        -0.355396        -2.331438
 H         2.145688        -1.789774        -1.459311
