19
Iteration:    65charge 0 multiplicity 1
 C         0.036054        -0.491179         0.217501
 C         1.470747        -0.188772         0.066675
 C         2.735856        -0.315057         1.042882
 C         3.087796         0.889142         0.154223
 C         4.677046         1.196723         0.206553
 O         4.712483         0.184480        -0.843251
 C         3.297625         0.295561        -1.189537
 C         2.166970        -0.715269        -1.380791
 O         1.606744         1.289943         0.152004
 H        -0.225838        -0.346252         1.338324
 H        -0.489026         0.206249        -0.284706
 H        -0.252407        -1.490123        -0.025390
 H         2.578052        -0.075638         2.115620
 H         3.368645        -1.256248         1.051190
 H         5.184508         2.141026        -0.064460
 H         5.148913         0.791576         1.174182
 H         3.183240         1.094703        -1.850300
 H         1.625437        -0.512817        -2.260412
 H         2.424880        -1.713705        -1.373957
