19
Iteration:  1677
 C        -0.078504        -0.570431         0.240312
 C         1.410759        -0.147463        -0.025876
 C         2.531425        -0.369931         1.038249
 C         3.175432         0.766394         0.292276
 C         4.621684         1.193397         0.186060
 O         4.892905         0.202018        -0.950246
 C         3.403394         0.321201        -1.130666
 C         2.160209        -0.633382        -1.292397
 O         1.714491         1.377651         0.130915
 H        -0.459495        -0.078681         1.070094
 H        -0.832648        -0.538165        -0.531011
 H        -0.079261        -1.563822         0.495250
 H         2.267399        -0.109430         2.083396
 H         3.049700        -1.351328         0.970767
 H         4.676279         2.208397        -0.187329
 H         5.390410         1.071343         1.006147
 H         3.159456         0.989334        -1.893606
 H         1.492761        -0.442193        -2.189954
 H         2.259152        -1.690269        -1.239983
