19
Iteration:  4994charge 0 multiplicity 1
 C         0.021821        -0.522310         0.196034
 C         1.421694        -0.136083         0.071838
 C         2.641638        -0.365441         1.016115
 C         3.106800         0.840319         0.113906
 C         4.582682         1.218796         0.146092
 O         4.757111         0.073681        -0.755688
 C         3.410878         0.289983        -1.209237
 C         2.168261        -0.600883        -1.305255
 O         1.677067         1.317971         0.180940
 H        -0.509399         0.159990         0.819930
 H        -0.436105        -0.484515        -0.773581
 H        -0.097884        -1.548584         0.655229
 H         2.680241         0.200995         2.013449
 H         3.291296        -1.218003         1.042705
 H         4.903701         2.065053        -0.488954
 H         5.179441         1.280292         1.136915
 H         3.423164         1.134809        -1.967593
 H         1.381734        -0.346552        -1.959217
 H         2.315461        -1.725192        -1.459271
