19
Iteration:    77
 C         0.074351        -0.425043         0.279994
 C         1.512693        -0.240733        -0.083374
 C         2.751625        -0.310001         0.995312
 C         3.034554         0.921592         0.230205
 C         4.561278         1.122089         0.206840
 O         4.783435         0.196517        -0.865680
 C         3.290196         0.335429        -1.189900
 C         2.163168        -0.706259        -1.303522
 O         1.624492         1.250938         0.168899
 H        -0.072734        -0.067476         1.304096
 H        -0.477998         0.160417        -0.377332
 H        -0.257922        -1.458885         0.147587
 H         2.257623        -0.126217         1.949445
 H         3.563660        -1.044482         0.867055
 H         5.051149         2.090710        -0.058564
 H         4.915886         0.737346         1.198711
 H         3.236368         0.947542        -1.996700
 H         1.584993        -0.550774        -2.196075
 H         2.341092        -1.730270        -1.145363
