19
Iteration:  1684charge 0 multiplicity 1
 C        -0.041229        -0.570892         0.227414
 C         1.399893        -0.061948         0.024753
 C         2.524483        -0.392599         1.037979
 C         3.180266         0.705945         0.249277
 C         4.635044         1.200912         0.152518
 O         4.859583         0.225934        -0.914739
 C         3.413383         0.277481        -1.152829
 C         2.151506        -0.629613        -1.267956
 O         1.710914         1.363423         0.121446
 H        -0.469793        -0.112229         1.160729
 H        -0.814624        -0.471612        -0.678222
 H         0.053283        -1.672063         0.523568
 H         2.184677        -0.131599         2.038501
 H         2.914758        -1.429333         0.973879
 H         4.546017         2.264519        -0.109636
 H         5.468317         1.177159         0.963206
 H         3.225294         1.133907        -1.877739
 H         1.690710        -0.328129        -2.129561
 H         2.246717        -1.725775        -1.255742
