19
Iteration:  1470charge 0 multiplicity 1
 C         0.037010        -0.514384         0.214708
 C         1.443033        -0.114161         0.043423
 C         2.592494        -0.413548         0.984019
 C         3.104577         0.787628         0.210571
 C         4.615190         1.268113         0.134927
 O         4.805875         0.138814        -0.848962
 C         3.333571         0.302401        -1.194747
 C         2.181927        -0.613777        -1.313732
 O         1.689507         1.303666         0.220440
 H        -0.292214        -0.032938         1.074141
 H        -0.611381        -0.343088        -0.758801
 H         0.144015        -1.642248         0.442223
 H         2.440718         0.013643         1.960701
 H         2.985768        -1.424938         0.956429
 H         4.881937         2.299802        -0.121458
 H         5.093355         1.051914         1.036265
 H         3.351993         1.144361        -1.944425
 H         1.471281        -0.387824        -2.136250
 H         2.242493        -1.703754        -1.227555
