19
Iteration:  3561charge 0 multiplicity 1
 C        -0.025170        -0.526759         0.248005
 C         1.409325        -0.180948         0.027136
 C         2.601235        -0.367920         1.003307
 C         3.120057         0.863486         0.197013
 C         4.648041         1.261051         0.146736
 O         4.733019         0.127373        -0.841477
 C         3.376303         0.282643        -1.175579
 C         2.257580        -0.706508        -1.238126
 O         1.689167         1.399730         0.121734
 H        -0.313746         0.020989         1.103034
 H        -0.584581        -0.209067        -0.648251
 H        -0.226635        -1.625801         0.312920
 H         2.244999        -0.251168         1.941061
 H         2.963954        -1.385925         0.778706
 H         4.980881         2.137615        -0.382132
 H         5.217138         1.079368         1.124776
 H         3.220990         1.136231        -1.886200
 H         1.637964        -0.727884        -2.102392
 H         2.780715        -1.622432        -1.053309
