19
Iteration:  3457charge 0 multiplicity 1
 C         0.020852        -0.536294         0.303542
 C         1.457300        -0.204906         0.001171
 C         2.605085        -0.321502         1.030274
 C         3.082951         0.852647         0.148284
 C         4.533777         1.184133         0.180290
 O         4.832714         0.115303        -0.793210
 C         3.329309         0.341753        -1.222098
 C         2.168697        -0.684981        -1.257706
 O         1.731136         1.386577         0.044032
 H        -0.187446        -0.000980         1.280715
 H        -0.574046        -0.055439        -0.492330
 H        -0.198528        -1.597555         0.403671
 H         2.432570         0.028599         2.140408
 H         3.222238        -1.189154         1.173622
 H         4.836695         2.209317        -0.040258
 H         5.027589         0.750835         0.982022
 H         3.278462         1.160369        -1.987256
 H         1.621157        -0.642744        -2.232429
 H         2.471211        -1.780103        -1.277975
