19
Iteration:  2715charge 0 multiplicity 1
 C        -0.001243        -0.462276         0.302166
 C         1.486296        -0.199944         0.001207
 C         2.609302        -0.351584         1.073120
 C         3.111254         0.903410         0.162632
 C         4.641514         1.171869         0.169096
 O         4.821106         0.139153        -0.833982
 C         3.290435         0.375377        -1.172644
 C         2.136237        -0.667085        -1.303802
 O         1.639870         1.240806         0.080424
 H        -0.213552         0.330083         0.898276
 H        -0.534592        -0.335747        -0.622270
 H        -0.076638        -1.504969         0.636960
 H         2.291367        -0.006017         2.021817
 H         3.353921        -1.149992         1.079286
 H         5.061300         2.118062        -0.147385
 H         5.124719         0.728803         1.152511
 H         3.539236         1.236406        -1.894046
 H         1.692856        -0.564372        -2.290764
 H         2.420721        -1.689176        -1.386860
