19
Iteration:   656charge 0 multiplicity 1
 C         0.076985        -0.409634         0.279801
 C         1.482800        -0.187487         0.007613
 C         2.661291        -0.450345         0.982453
 C         3.113186         0.838780         0.164014
 C         4.615464         1.281366         0.219016
 O         4.710657         0.183764        -0.821419
 C         3.292819         0.314527        -1.283823
 C         2.178131        -0.692067        -1.416165
 O         1.694348         1.261580         0.287757
 H        -0.258439         0.198724         1.016568
 H        -0.511254        -0.202388        -0.656165
 H        -0.231839        -1.461556         0.574651
 H         2.392517        -0.170837         2.016269
 H         3.125378        -1.443669         1.015594
 H         4.785519         2.335159         0.003740
 H         5.142098         1.004068         1.053592
 H         3.276775         1.036202        -2.102171
 H         1.599837        -0.513645        -2.399745
 H         2.476930        -1.767578        -1.242286
