19
Iteration:  1549charge 0 multiplicity 1
 C        -0.076524        -0.534495         0.261598
 C         1.434536        -0.217031         0.030819
 C         2.682892        -0.368551         0.942470
 C         3.076456         0.899123         0.148339
 C         4.678866         1.201000         0.252418
 O         4.729552         0.142561        -0.840884
 C         3.313274         0.387530        -1.211094
 C         2.225452        -0.658111        -1.310894
 O         1.723234         1.312200         0.177652
 H        -0.390809        -0.120128         1.344284
 H        -0.594170         0.168850        -0.438796
 H        -0.383955        -1.731163         0.203941
 H         2.423965        -0.051278         1.956550
 H         3.229419        -1.306965         0.961366
 H         5.253672         2.143273        -0.141836
 H         4.818868         0.818098         1.208635
 H         3.353732         1.072631        -2.188003
 H         1.649110        -0.663672        -2.294400
 H         2.700737        -1.635361        -1.190466
