19
Iteration:  1745
 C         0.034826        -0.444953         0.253878
 C         1.439147        -0.156767         0.076012
 C         2.675523        -0.388203         0.981784
 C         3.104594         0.927638         0.144928
 C         4.662760         1.210363         0.200059
 O         4.760385         0.086101        -0.740014
 C         3.330402         0.417260        -1.256933
 C         2.186042        -0.667351        -1.312068
 O         1.616297         1.231558         0.123556
 H        -0.271572        -0.275083         1.324010
 H        -0.620266         0.142873        -0.286717
 H        -0.164125        -1.515475         0.001011
 H         2.402610        -0.313653         2.057601
 H         3.215843        -1.357704         0.919985
 H         5.119219         2.203717        -0.202623
 H         5.078017         1.018811         1.136015
 H         3.310356         1.199903        -2.153076
 H         1.426420        -0.738210        -2.344360
 H         2.600263        -1.741049        -1.463281
