19
Iteration:   564
 C        -0.012211        -0.521570         0.361864
 C         1.457715        -0.135779         0.089660
 C         2.704542        -0.353818         0.851817
 C         3.081403         0.906167         0.125347
 C         4.585593         1.124494         0.325442
 O         4.697667         0.121684        -0.858441
 C         3.294875         0.449808        -1.183677
 C         2.254649        -0.614325        -1.353504
 O         1.692648         1.251899         0.111953
 H        -0.415490        -0.480330         1.496922
 H        -0.666585         0.040822        -0.286876
 H        -0.018991        -1.540107        -0.039983
 H         2.758924        -0.176187         1.931115
 H         3.302952        -1.234236         0.611543
 H         5.029066         2.089431         0.091927
 H         5.083004         0.527541         1.233136
 H         3.205830         1.258854        -2.092986
 H         1.657247        -0.625520        -2.264399
 H         2.739539        -1.611328        -1.168419
