19
Iteration:  1680charge 0 multiplicity 1
 C        -0.069896        -0.565757         0.220207
 C         1.409191        -0.107240        -0.005924
 C         2.532773        -0.377695         1.039055
 C         3.179798         0.732880         0.273544
 C         4.630204         1.185872         0.177110
 O         4.881765         0.210804        -0.937424
 C         3.418255         0.303134        -1.132450
 C         2.164449        -0.627604        -1.269476
 O         1.707749         1.374634         0.126922
 H        -0.487383        -0.089824         1.166511
 H        -0.799849        -0.539745        -0.520758
 H        -0.028137        -1.674267         0.537192
 H         2.223455        -0.130073         2.059566
 H         2.965396        -1.367486         0.958087
 H         4.608470         2.311904        -0.132954
 H         5.369691         1.158483         0.894811
 H         3.133428         1.043809        -1.936773
 H         1.493859        -0.357752        -2.260079
 H         2.247569        -1.758463        -1.251782
