19
Iteration:  3175charge 0 multiplicity 1
 C        -0.034508        -0.525130         0.240156
 C         1.450245        -0.180885         0.080129
 C         2.693519        -0.314364         0.995024
 C         3.105194         0.862905         0.111282
 C         4.602588         1.236517         0.181381
 O         4.873889         0.091266        -0.729356
 C         3.309023         0.248575        -1.271427
 C         2.107982        -0.657954        -1.303465
 O         1.668834         1.379511         0.121869
 H        -0.499140        -0.376979         1.287808
 H        -0.651946         0.096065        -0.433512
 H        -0.185587        -1.603481         0.011377
 H         2.527006        -0.025648         2.063268
 H         3.214482        -1.252404         1.022906
 H         4.920008         2.106785        -0.362943
 H         5.213402         1.153592         1.215800
 H         3.395191         0.994400        -1.986396
 H         1.358704        -0.495750        -1.990376
 H         2.543309        -1.682236        -1.331361
