19
Iteration:   569
 C        -0.011628        -0.524577         0.352618
 C         1.426064        -0.163568         0.073568
 C         2.746733        -0.354514         0.900885
 C         3.097948         0.880378         0.112205
 C         4.592467         1.084077         0.311078
 O         4.686728         0.131625        -0.870908
 C         3.277805         0.459107        -1.209468
 C         2.276017        -0.636896        -1.346849
 O         1.665863         1.314556         0.144600
 H        -0.319997        -0.422730         1.314819
 H        -0.610521         0.136963        -0.330404
 H        -0.018889        -1.569143        -0.084436
 H         2.726874        -0.177926         1.986840
 H         3.332022        -1.234126         0.609528
 H         5.046890         2.068494         0.084394
 H         4.910817         0.721039         1.212163
 H         3.220461         1.270899        -1.799341
 H         1.747421        -0.758603        -2.345261
 H         2.776374        -1.616008        -1.183630
