19
Iteration:  4914
 C        -0.043378        -0.469698         0.322858
 C         1.471308        -0.217523        -0.040019
 C         2.626144        -0.273173         1.015466
 C         3.152309         0.906899         0.237630
 C         4.584264         1.190770         0.231190
 O         4.764061         0.123217        -0.813250
 C         3.328849         0.340780        -1.221029
 C         2.229511        -0.735365        -1.325035
 O         1.693025         1.291106         0.061705
 H        -0.224189        -0.209133         1.397871
 H        -0.590167         0.305010        -0.319333
 H        -0.415773        -1.586729         0.073796
 H         2.445281        -0.024832         2.047602
 H         3.281352        -1.221803         0.788390
 H         4.821028         2.203192        -0.012160
 H         5.163082         0.695903         1.097403
 H         3.368991         1.055483        -2.110344
 H         1.467568        -0.512205        -2.230061
 H         2.507682        -1.764608        -1.189906
