19
Iteration:  3735charge 0 multiplicity 1
 C        -0.039969        -0.549512         0.266442
 C         1.431985        -0.167181        -0.007292
 C         2.558687        -0.341818         1.039505
 C         3.136758         0.828692         0.193200
 C         4.542599         1.198365         0.156388
 O         4.818513         0.148817        -0.888123
 C         3.376586         0.292623        -1.204438
 C         2.249364        -0.641625        -1.259817
 O         1.731676         1.371034         0.137443
 H        -0.365195         0.033590         1.166197
 H        -0.736693        -0.088747        -0.488206
 H        -0.173094        -1.608179         0.536350
 H         2.265181        -0.058138         2.042580
 H         2.862225        -1.432626         1.218364
 H         4.605979         2.164240        -0.305671
 H         5.436567         1.120182         0.893247
 H         3.308955         1.194558        -1.862524
 H         1.629348        -0.866139        -2.158972
 H         2.621881        -1.726148        -1.070076
