19
Iteration:  2130charge 0 multiplicity 1
 C         0.053599        -0.451673         0.366253
 C         1.508014        -0.175504         0.053026
 C         2.681838        -0.413162         0.965886
 C         3.066817         0.908644         0.156680
 C         4.603535         1.168990         0.255649
 O         4.775765         0.080746        -0.769372
 C         3.307610         0.389946        -1.246922
 C         2.158399        -0.652851        -1.343415
 O         1.598205         1.296122         0.059379
 H        -0.287072        -0.136287         1.294558
 H        -0.478920         0.220166        -0.430712
 H        -0.060706        -1.491784        -0.014158
 H         2.616866        -0.257374         2.040283
 H         3.552236        -0.964890         0.753724
 H         5.064430         2.153382        -0.126129
 H         5.064454         0.785601         1.069250
 H         3.313293         1.046150        -2.044244
 H         1.530942        -0.486388        -2.244070
 H         2.461583        -1.711514        -1.249151
