19
Iteration:  1566charge 0 multiplicity 1
 C         0.033776        -0.539122         0.283879
 C         1.466331        -0.195424         0.009548
 C         2.623204        -0.363477         1.013486
 C         3.118931         0.869312         0.199548
 C         4.624108         1.186908         0.203519
 O         4.762475         0.121050        -0.779738
 C         3.365166         0.364224        -1.218706
 C         2.115874        -0.632856        -1.343210
 O         1.676941         1.333242         0.102072
 H        -0.187073        -0.529851         1.271846
 H        -0.642042         0.074484        -0.323438
 H        -0.059124        -1.473884        -0.046419
 H         2.327824        -0.164837         2.052695
 H         3.289048        -1.238993         0.868297
 H         4.844198         2.144688        -0.183197
 H         5.410225         1.026800         1.007332
 H         3.377175         1.159215        -1.878022
 H         1.502343        -0.337838        -2.193102
 H         2.262026        -1.720921        -1.335619
