19
Iteration:  3662charge 0 multiplicity 1
 C         0.061169        -0.546824         0.311508
 C         1.411574        -0.189176         0.050569
 C         2.613064        -0.355612         1.024730
 C         3.086433         0.913265         0.095999
 C         4.624587         1.222980         0.144068
 O         4.664917         0.065820        -0.700071
 C         3.344691         0.342339        -1.243893
 C         2.254324        -0.660708        -1.406371
 O         1.708091         1.319222         0.146714
 H        -0.362901        -0.011111         1.222018
 H        -0.487239         0.130774        -0.344350
 H        -0.124164        -1.603839         0.258332
 H         2.504984         0.090909         2.120773
 H         3.396057        -1.100167         1.092523
 H         4.844945         2.206516        -0.398864
 H         5.154373         1.236164         1.050073
 H         3.465477         1.001114        -2.125095
 H         1.804866        -0.574445        -2.340743
 H         2.404960        -1.775124        -1.224428
