19
Iteration:  3998
 C         0.051084        -0.592522         0.265736
 C         1.425202        -0.174809        -0.063867
 C         2.594509        -0.326812         1.086304
 C         3.114271         0.794308         0.198576
 C         4.609339         1.319381         0.108402
 O         4.841038         0.079601        -0.750175
 C         3.311961         0.307339        -1.144060
 C         2.098473        -0.631026        -1.365607
 O         1.742359         1.359676         0.115651
 H        -0.115347        -0.306256         1.352646
 H        -0.687898        -0.214666        -0.454603
 H         0.004260        -1.690484         0.272313
 H         2.191320        -0.000547         2.072954
 H         3.186980        -1.197796         1.184088
 H         4.576624         2.279324        -0.456802
 H         5.388843         1.201488         0.917064
 H         3.204318         1.068650        -1.890592
 H         1.651432        -0.247565        -2.230395
 H         2.137254        -1.789945        -1.465407
