19
Iteration:  1383
 C        -0.045996        -0.601217         0.306276
 C         1.392006        -0.164772         0.091217
 C         2.597117        -0.390728         0.983450
 C         3.120017         0.816427         0.208180
 C         4.534606         1.215677         0.196469
 O         4.809631         0.117693        -0.823573
 C         3.399091         0.312245        -1.205077
 C         2.209230        -0.588775        -1.321880
 O         1.789378         1.402990         0.103752
 H        -0.389146        -0.662251         1.293804
 H        -0.681959         0.088390        -0.391334
 H        -0.221519        -1.699129        -0.031513
 H         2.422134        -0.115045         1.989042
 H         3.152400        -1.265734         0.755209
 H         4.603416         2.285184        -0.375918
 H         5.211704         1.213466         0.972046
 H         3.404229         1.085638        -2.116984
 H         1.550857        -0.294374        -2.136731
 H         2.223190        -1.670236        -1.365661
