19
Iteration:  1393
 C         0.014437        -0.629091         0.321748
 C         1.410124        -0.148186         0.027738
 C         2.567327        -0.345975         0.955560
 C         3.113449         0.796233         0.198580
 C         4.609104         1.216834         0.207880
 O         4.857879         0.126040        -0.804497
 C         3.347957         0.293458        -1.154744
 C         2.109931        -0.625944        -1.347902
 O         1.779131         1.410850         0.081566
 H        -0.174113        -0.564183         1.357823
 H        -0.886548         0.040776        -0.104107
 H        -0.094319        -1.633429        -0.178652
 H         2.438611        -0.205480         1.998110
 H         2.978426        -1.325400         0.915865
 H         4.608267         2.185527        -0.411116
 H         5.127473         1.315550         1.072124
 H         3.221060         1.290043        -1.771636
 H         1.568318        -0.184763        -2.193765
 H         2.286968        -1.715144        -1.450206
