19
Iteration:  2782
 C         0.018624        -0.530597         0.250522
 C         1.457147        -0.129298         0.100780
 C         2.667201        -0.285493         1.051039
 C         3.125952         0.845410         0.168169
 C         4.581510         1.240924         0.124687
 O         4.796338         0.076871        -0.782701
 C         3.373894         0.286934        -1.205874
 C         2.157382        -0.651849        -1.326757
 O         1.654066         1.313866         0.133119
 H        -0.457384        -0.203290         1.130135
 H        -0.493253         0.071032        -0.526476
 H         0.029504        -1.629115        -0.054363
 H         2.573549         0.048475         2.099079
 H         2.934073        -1.366139         1.085145
 H         4.710905         2.270903        -0.301768
 H         5.116342         1.016029         1.145145
 H         3.277040         0.922623        -2.184843
 H         1.623582        -0.446162        -2.278429
 H         2.226856        -1.766995        -1.491837
