19
Iteration:  3619charge 0 multiplicity 1
 C        -0.115324        -0.540983         0.302203
 C         1.414640        -0.140492         0.046162
 C         2.616605        -0.330067         1.016712
 C         3.133105         0.800110         0.196655
 C         4.626652         1.248326         0.147944
 O         4.870282         0.230284        -0.796513
 C         3.451372         0.216868        -1.203292
 C         2.082393        -0.658958        -1.290391
 O         1.744999         1.319898         0.050470
 H        -0.768847        -0.251826         1.214722
 H        -0.739589        -0.249954        -0.572766
 H        -0.014888        -1.626255         0.392377
 H         2.246209        -0.194681         2.101975
 H         3.023237        -1.282502         1.187532
 H         4.881809         2.321523        -0.311711
 H         5.233884         1.056897         1.000752
 H         3.377638         1.005781        -1.926955
 H         1.500819        -0.461181        -2.153735
 H         2.236550        -1.771855        -1.415882
