19
Iteration:  2263charge 0 multiplicity 1
 C         0.037117        -0.513569         0.381788
 C         1.397423        -0.143496         0.006221
 C         2.604051        -0.390588         0.933625
 C         3.120429         0.769073         0.207773
 C         4.510293         1.219563         0.194404
 O         4.817101         0.163687        -0.790401
 C         3.402867         0.239563        -1.207352
 C         2.117690        -0.623623        -1.311862
 O         1.769520         1.436669         0.045083
 H        -0.232255        -0.629629         1.507519
 H        -0.862300         0.025286        -0.158707
 H        -0.072744        -1.538029         0.085908
 H         2.287716        -0.136818         1.935337
 H         3.063632        -1.361057         0.984491
 H         4.875330         2.244583        -0.105705
 H         5.234345         0.800709         0.872355
 H         3.422074         1.046117        -1.854630
 H         1.588954        -0.471792        -2.310554
 H         2.360231        -1.778470        -1.315403
