19
Iteration:   937charge 0 multiplicity 1
 C         0.084832        -0.509619         0.279922
 C         1.483089        -0.110898        -0.032282
 C         2.651156        -0.392980         0.972517
 C         3.111941         0.813468         0.261943
 C         4.576168         1.179957         0.246655
 O         4.786382         0.223562        -0.878024
 C         3.358553         0.285785        -1.138389
 C         2.125057        -0.669775        -1.354627
 O         1.635517         1.320660         0.095900
 H        -0.086828        -0.088231         1.226796
 H        -0.612356         0.060359        -0.386429
 H        -0.149319        -1.645483         0.333816
 H         2.209834        -0.014312         1.955329
 H         3.272108        -1.290922         1.220144
 H         4.735936         2.153225         0.058327
 H         5.216604         0.670156         1.072925
 H         3.100031         1.000324        -1.929435
 H         1.738291        -0.462111        -2.409689
 H         2.461117        -1.755963        -1.288047
