19
Iteration:  2834
 C         0.001335        -0.522780         0.361421
 C         1.381042        -0.058400         0.053160
 C         2.541812        -0.381620         1.034327
 C         3.059248         0.813213         0.130932
 C         4.613724         1.227627         0.145209
 O         4.850877         0.142293        -0.792339
 C         3.407393         0.296825        -1.223446
 C         2.201969        -0.721436        -1.294148
 O         1.709817         1.374501         0.068083
 H        -0.102233        -0.257463         1.409650
 H        -0.658675        -0.073321        -0.387624
 H         0.078898        -1.602683         0.043923
 H         2.284905        -0.180225         2.085849
 H         3.150525        -1.401237         0.737030
 H         4.693174         2.232006        -0.227873
 H         5.049746         1.048840         1.228773
 H         3.294073         0.971932        -2.073616
 H         1.753261        -0.579673        -2.298127
 H         2.334408        -1.780805        -1.245786
