19
Iteration:  2533charge 0 multiplicity 1
 C        -0.008402        -0.515291         0.258575
 C         1.426053        -0.224427         0.028596
 C         2.664183        -0.340543         1.018382
 C         3.121773         0.805364         0.194943
 C         4.600154         1.185371         0.211920
 O         4.752318         0.135196        -0.844604
 C         3.346780         0.317183        -1.211548
 C         2.179759        -0.653935        -1.382001
 O         1.729127         1.378623         0.195751
 H        -0.302016         0.205646         0.973272
 H        -0.541272        -0.440031        -0.726092
 H        -0.291460        -1.535805         0.623986
 H         2.426266         0.264486         1.954082
 H         3.250733        -1.340060         1.115446
 H         4.654116         2.240564        -0.263177
 H         5.189101         1.004335         1.105276
 H         3.333009         0.959509        -2.149948
 H         1.506138        -0.236633        -2.161243
 H         2.436469        -1.747661        -1.340672
