19
Iteration:  2613charge 0 multiplicity 1
 C         0.029592        -0.496277         0.275095
 C         1.490830        -0.176606         0.020775
 C         2.654276        -0.275311         0.977156
 C         3.092551         0.829733         0.100498
 C         4.646714         1.137268         0.284343
 O         4.726720         0.156573        -0.818622
 C         3.330010         0.335181        -1.307978
 C         2.185449        -0.702905        -1.266605
 O         1.642481         1.307850         0.112549
 H        -0.165870        -0.402080         1.402208
 H        -0.450409         0.300318        -0.276922
 H        -0.111135        -1.478620         0.047278
 H         2.346984         0.025349         2.032753
 H         3.255829        -1.264080         1.153241
 H         5.050062         2.192751         0.026990
 H         5.078722         0.899566         1.261828
 H         3.389383         1.210960        -2.037558
 H         1.498518        -0.471213        -2.060289
 H         2.369565        -1.776354        -1.086313
