19
Iteration:  2929charge 0 multiplicity 1
 C         0.017016        -0.533632         0.226653
 C         1.455259        -0.180407         0.050280
 C         2.588403        -0.328161         1.025834
 C         3.105993         0.837803         0.169284
 C         4.527518         1.252568         0.167531
 O         4.799927         0.119058        -0.817850
 C         3.395998         0.254664        -1.196396
 C         2.141847        -0.681528        -1.272163
 O         1.779839         1.401230         0.158022
 H        -0.445176        -0.120685         1.169821
 H        -0.538369        -0.388986        -0.701211
 H        -0.100991        -1.631312         0.305193
 H         2.426522         0.039312         2.004099
 H         3.063442        -1.216501         0.799466
 H         4.838464         2.220958        -0.314918
 H         5.047880         1.038121         1.043271
 H         3.202709         0.900463        -2.075934
 H         1.687851        -0.344164        -2.240564
 H         2.089040        -1.792539        -1.305574
