19
Iteration:  1276
 C        -0.021554        -0.555786         0.353986
 C         1.451732        -0.159753         0.024412
 C         2.624352        -0.352103         0.962079
 C         3.110369         0.811428         0.185844
 C         4.620965         1.235654         0.254822
 O         4.730626         0.171310        -0.853903
 C         3.359213         0.333989        -1.172691
 C         2.160569        -0.619681        -1.327312
 O         1.760942         1.302009         0.065252
 H        -0.380883        -0.193738         1.267575
 H        -0.645548        -0.202124        -0.468324
 H         0.111993        -1.737290         0.217036
 H         2.200379        -0.144920         1.950052
 H         3.084318        -1.384006         0.875959
 H         4.950362         2.197543        -0.070070
 H         5.188670         0.870756         1.126224
 H         3.314938         1.149154        -1.916723
 H         1.576852        -0.299032        -2.206404
 H         2.393108        -1.669323        -1.358985
