19
Iteration:  4324
 C         0.024760        -0.438120         0.299991
 C         1.480757        -0.252082         0.012829
 C         2.605960        -0.278298         1.042861
 C         3.129697         0.826366         0.210475
 C         4.610893         1.208716         0.217069
 O         4.776605         0.158389        -0.874622
 C         3.376572         0.330160        -1.160020
 C         2.167886        -0.687894        -1.301447
 O         1.662975         1.298285         0.027547
 H        -0.252791        -0.283273         1.344845
 H        -0.644605         0.068447        -0.365258
 H        -0.187233        -1.498327         0.267781
 H         2.151265         0.164831         2.024877
 H         3.211314        -1.183499         1.133840
 H         4.781783         2.256358        -0.125004
 H         5.049430         0.700480         1.192172
 H         3.292917         0.860185        -2.077408
 H         1.634547        -0.603125        -2.280748
 H         2.499874        -1.810798        -1.255376
