19
Iteration:  4374
 C         0.018961        -0.655501         0.250406
 C         1.427680        -0.089806        -0.001774
 C         2.613589        -0.289473         0.994693
 C         3.110340         0.825693         0.134799
 C         4.538428         1.332234         0.185572
 O         4.768138         0.009086        -0.754841
 C         3.422447         0.249928        -1.230662
 C         2.114215        -0.644006        -1.276318
 O         1.792289         1.422764         0.173817
 H        -0.344025        -0.353282         1.307497
 H        -0.740340        -0.141035        -0.400266
 H        -0.054101        -1.747576         0.158215
 H         2.260443         0.021008         1.936728
 H         3.176492        -1.217453         0.944511
 H         4.791025         1.958791        -0.625253
 H         5.052077         1.396828         1.074135
 H         3.308627         1.029523        -2.042072
 H         1.739364        -0.401272        -2.267194
 H         2.226389        -1.721159        -1.291458
