19
Iteration:   463charge 0 multiplicity 1
 C         0.018286        -0.506594         0.205802
 C         1.449558        -0.219790         0.118227
 C         2.688807        -0.356983         1.036908
 C         3.069579         0.841350         0.145697
 C         4.620279         1.089809         0.238484
 O         4.728988         0.240284        -0.963872
 C         3.288733         0.412281        -1.203728
 C         2.239480        -0.652384        -1.324557
 O         1.683928         1.264166         0.193297
 H        -0.248386         0.140150         1.202844
 H        -0.469869        -0.078715        -0.710773
 H        -0.263258        -1.502585         0.425975
 H         2.537734         0.211416         1.948099
 H         3.113263        -1.363507         1.160348
 H         5.195656         2.067955         0.168624
 H         4.970115         0.558449         1.191306
 H         3.069615         1.186819        -2.114935
 H         1.588434        -0.512433        -2.146872
 H         2.726237        -1.589229        -1.228926
