19
Iteration:  2459
 C         0.074495        -0.578578         0.294219
 C         1.431955        -0.192062         0.118124
 C         2.527847        -0.354975         1.094302
 C         3.181284         0.787034         0.178746
 C         4.604843         1.223119         0.152181
 O         4.830242         0.115162        -0.753865
 C         3.353466         0.324724        -1.287861
 C         2.083955        -0.566087        -1.358375
 O         1.730989         1.348029         0.061827
 H        -0.239877        -0.455971         1.396665
 H        -0.688801         0.022607        -0.327808
 H        -0.209430        -1.489516        -0.147253
 H         2.270437        -0.024675         2.155235
 H         3.096131        -1.365050         1.204515
 H         4.682816         2.162559        -0.526808
 H         5.317404         1.208608         0.935984
 H         3.221063         1.219555        -2.051108
 H         1.498257        -0.265587        -2.208942
 H         2.309997        -1.662132        -1.477584
