19
Iteration:  2016
 C         0.040388        -0.458149         0.285591
 C         1.498856        -0.164577         0.001006
 C         2.601087        -0.447462         0.988281
 C         3.067230         0.860651         0.207814
 C         4.613785         1.233382         0.235375
 O         4.754607         0.197307        -0.865432
 C         3.336442         0.318426        -1.217922
 C         2.174872        -0.730949        -1.344029
 O         1.731921         1.343705         0.142061
 H        -0.535196         0.266556         1.031165
 H        -0.713520        -0.355348        -0.469929
 H        -0.307971        -1.494180         0.616881
 H         2.453199        -0.130742         2.038546
 H         3.210536        -1.429817         0.985247
 H         4.968298         2.227415        -0.045610
 H         5.054585         0.729468         1.149908
 H         3.390322         1.031692        -2.006860
 H         1.643161        -0.593821        -2.264448
 H         2.388887        -1.756536        -1.164982
