19
Iteration:  1257charge 0 multiplicity 1
 C        -0.005763        -0.567937         0.274252
 C         1.455728        -0.217459         0.035057
 C         2.712972        -0.357141         1.016884
 C         3.087251         0.871327         0.147597
 C         4.614437         1.158561         0.165681
 O         4.806624         0.046697        -0.729696
 C         3.295892         0.480436        -1.280822
 C         2.164551        -0.584110        -1.342843
 O         1.622079         1.318269         0.123652
 H        -0.128718        -0.150969         1.347757
 H        -0.538804         0.063036        -0.352859
 H        -0.285372        -1.590897         0.205965
 H         2.657048        -0.000554         2.078929
 H         3.369274        -1.301572         0.947809
 H         4.815371         2.178069        -0.159952
 H         5.121180         1.042842         1.233929
 H         3.469542         1.209408        -1.994962
 H         1.444541        -0.590444        -2.237556
 H         2.636567        -1.623595        -1.389567
