19
Iteration:  3624charge 0 multiplicity 1
 C        -0.105711        -0.550213         0.301077
 C         1.445355        -0.098433         0.049505
 C         2.603702        -0.337771         1.023199
 C         3.152172         0.780192         0.183313
 C         4.611211         1.275907         0.158180
 O         4.868756         0.199673        -0.789565
 C         3.418222         0.219055        -1.171639
 C         2.050514        -0.675106        -1.301290
 O         1.738420         1.337249         0.052056
 H        -0.576986        -0.276842         1.214395
 H        -0.683064        -0.329615        -0.602750
 H        -0.157635        -1.669504         0.335734
 H         2.305969        -0.120203         2.013274
 H         3.259856        -1.313851         0.988886
 H         4.762538         2.173143        -0.358673
 H         5.303114         1.143415         1.054279
 H         3.369736         1.078154        -1.900431
 H         1.610088        -0.437266        -2.360809
 H         2.316749        -1.715349        -1.317078
