19
Iteration:  1857
 C        -0.043563        -0.456184         0.207050
 C         1.457061        -0.198851         0.028996
 C         2.638124        -0.373376         1.000412
 C         3.102546         0.841866         0.151451
 C         4.561518         1.254518         0.200682
 O         4.855741         0.114504        -0.840885
 C         3.304874         0.358621        -1.227064
 C         2.155368        -0.710273        -1.288423
 O         1.741152         1.309896         0.222440
 H        -0.418742         0.230484         0.937477
 H        -0.572066        -0.331783        -0.694130
 H         0.012530        -1.509175         0.569577
 H         2.363218        -0.148726         2.021798
 H         3.123144        -1.363796         0.949598
 H         4.680612         2.302590        -0.215271
 H         5.092806         1.004070         1.106358
 H         3.174292         1.231256        -2.005767
 H         1.618448        -0.547114        -2.353313
 H         2.593820        -1.773281        -1.122743
