19
Iteration:  1959charge 0 multiplicity 1
 C         0.032484        -0.578746         0.240745
 C         1.473956        -0.163708         0.016184
 C         2.626489        -0.322585         0.970961
 C         3.119921         0.880964         0.203075
 C         4.587356         1.200015         0.149042
 O         4.755841         0.094602        -0.750563
 C         3.315984         0.327242        -1.202682
 C         2.133228        -0.645212        -1.330029
 O         1.739757         1.340935         0.171680
 H        -0.229715        -0.423295         1.279933
 H        -0.543410         0.002346        -0.527276
 H        -0.076270        -1.603984         0.022876
 H         2.346102         0.138927         1.918166
 H         3.247009        -1.217932         0.963526
 H         4.738239         2.138125        -0.284207
 H         5.268554         1.242817         1.088212
 H         3.431007         0.980476        -2.047305
 H         1.447018        -0.382514        -2.138197
 H         2.295065        -1.738543        -1.402631
