19
Iteration:  3029
 C        -0.047903        -0.588751         0.175586
 C         1.433530        -0.168380         0.075396
 C         2.620686        -0.323182         1.072641
 C         3.096697         0.839298         0.181517
 C         4.579747         1.223458         0.116646
 O         4.894224         0.108168        -0.856833
 C         3.429445         0.245685        -1.169645
 C         2.135117        -0.602028        -1.248730
 O         1.690494         1.377432         0.122748
 H        -0.382314        -0.226090         1.169525
 H        -0.700081         0.049342        -0.514486
 H        -0.313596        -1.725643         0.333110
 H         2.305639         0.013463         2.027832
 H         3.091540        -1.329874         0.993102
 H         4.771782         2.300162        -0.274520
 H         5.210110         1.084949         1.080509
 H         3.428479         0.984462        -2.040031
 H         1.292232        -0.261686        -1.979406
 H         2.306823        -1.690925        -1.319202
