19
Iteration:  1252
 C         0.012377        -0.543074         0.277255
 C         1.481622        -0.223537         0.009809
 C         2.728189        -0.318075         1.006634
 C         3.064467         0.880785         0.137721
 C         4.606400         1.177362         0.143870
 O         4.824151         0.023216        -0.720876
 C         3.272291         0.446629        -1.253763
 C         2.171614        -0.598080        -1.341636
 O         1.600207         1.301870         0.173648
 H        -0.071609        -0.166201         1.254548
 H        -0.637486         0.159419        -0.387196
 H        -0.200475        -1.686658         0.104073
 H         2.487828        -0.064585         2.041455
 H         3.264801        -1.231345         0.840988
 H         4.912977         2.228571        -0.149165
 H         5.009730         0.956560         1.065229
 H         3.581822         1.215250        -2.067551
 H         1.480978        -0.460046        -2.138866
 H         2.659346        -1.539409        -1.389634
