19
Iteration:  4681
 C         0.035027        -0.547784         0.348116
 C         1.406338        -0.125455        -0.041008
 C         2.503234        -0.284356         1.065458
 C         3.133472         0.789431         0.254909
 C         4.696368         1.179514         0.171441
 O         4.820925         0.176965        -0.807494
 C         3.320736         0.265103        -1.204343
 C         2.192753        -0.681109        -1.422412
 O         1.706810         1.347012         0.082268
 H        -0.124804        -0.386920         1.460390
 H        -0.684259         0.142662        -0.097123
 H        -0.170152        -1.547351         0.112566
 H         2.206970         0.070790         2.150603
 H         2.956534        -1.274792         0.907798
 H         4.748767         2.244664        -0.380983
 H         5.288416         1.103461         1.107580
 H         3.268957         1.053225        -1.968470
 H         1.626556        -0.597894        -2.356351
 H         2.314258        -1.852372        -1.227833
