19
Iteration:  3878
 C         0.026893        -0.566038         0.255729
 C         1.486114        -0.188089         0.030277
 C         2.676420        -0.348972         0.987155
 C         3.017133         0.897376         0.128684
 C         4.635459         1.249214         0.140511
 O         4.795920         0.067498        -0.765556
 C         3.362806         0.268301        -1.210408
 C         2.142581        -0.636334        -1.270649
 O         1.661885         1.410863         0.164086
 H        -0.435355        -0.254384         1.211542
 H        -0.417385        -0.068792        -0.589435
 H        -0.207179        -1.600872         0.193673
 H         2.481207        -0.272117         2.049864
 H         3.349799        -1.124968         0.795432
 H         4.899950         2.239904        -0.306442
 H         5.191016         1.043716         1.103448
 H         3.217039         1.017115        -1.964316
 H         1.624300        -0.477531        -2.157862
 H         2.129116        -1.777149        -1.271121
