19
Iteration:  2227charge 0 multiplicity 1
 C        -0.038358        -0.429227         0.252465
 C         1.494282        -0.260873         0.059172
 C         2.725244        -0.321137         1.004622
 C         3.058848         0.835733         0.151585
 C         4.672316         1.167939         0.166928
 O         4.736865         0.095933        -0.826825
 C         3.330326         0.355630        -1.216353
 C         2.226201        -0.634980        -1.326355
 O         1.624228         1.295325         0.189481
 H        -0.280103         0.118464         1.095271
 H        -0.507453         0.085842        -0.612877
 H        -0.317371        -1.538544         0.231504
 H         2.274225         0.123318         1.928947
 H         3.374108        -1.226168         1.127329
 H         4.852348         2.250113        -0.032296
 H         5.132023         0.780671         0.978677
 H         3.188832         1.105203        -1.983721
 H         1.712423        -0.401609        -2.200496
 H         2.491369        -1.638126        -1.264705
