19
Iteration:  3932
 C        -0.003097        -0.469819         0.285157
 C         1.459849        -0.233656        -0.015379
 C         2.549179        -0.320946         1.092753
 C         3.077048         0.832300         0.231365
 C         4.631705         1.207425         0.185574
 O         4.795252         0.255079        -0.911041
 C         3.359738         0.273878        -1.208933
 C         2.193467        -0.742738        -1.296322
 O         1.741173         1.297489         0.116133
 H        -0.445582         0.132709         1.160120
 H        -0.529372        -0.237167        -0.653316
 H        -0.265535        -1.532389         0.326467
 H         2.463749         0.118000         2.088681
 H         3.131110        -1.237364         1.125515
 H         4.829896         2.291836        -0.054061
 H         5.178355         0.768869         1.105381
 H         3.247524         0.949605        -2.044978
 H         1.649635        -0.274393        -2.050024
 H         2.272306        -1.895364        -1.405620
