19
Iteration:  2249
 C         0.014612        -0.502806         0.353581
 C         1.461269        -0.121120         0.014318
 C         2.578068        -0.406203         0.977844
 C         3.124439         0.843624         0.149947
 C         4.662109         1.173190         0.256036
 O         4.793157         0.130639        -0.809270
 C         3.280918         0.378810        -1.208545
 C         2.159862        -0.686247        -1.314996
 O         1.726030         1.320900         0.047534
 H        -0.089143        -0.212920         1.335235
 H        -0.608316         0.184304        -0.226333
 H        -0.224570        -1.558742         0.059107
 H         2.469455        -0.145682         2.059572
 H         3.164112        -1.334551         0.771411
 H         4.779115         2.148980        -0.212549
 H         5.009061         1.175281         1.218124
 H         3.207106         1.109838        -2.028677
 H         1.556703        -0.587129        -2.167341
 H         2.382640        -1.673869        -1.188427
