19
Iteration:   899charge 0 multiplicity 1
 C        -0.068103        -0.687037         0.338464
 C         1.365535        -0.165381        -0.052543
 C         2.610423        -0.401181         0.979001
 C         3.186849         0.784091         0.167329
 C         4.679573         1.270464         0.147906
 O         4.848310         0.137757        -0.747248
 C         3.373192         0.326790        -1.222170
 C         2.107440        -0.546689        -1.363259
 O         1.697290         1.388214         0.166290
 H        -0.386843        -0.433593         1.421136
 H        -0.823116        -0.250705        -0.274902
 H        -0.084340        -1.685429         0.102031
 H         2.334421         0.147394         1.850601
 H         3.111051        -1.343080         1.188478
 H         4.843595         2.277582        -0.382114
 H         5.196526         1.207885         1.051593
 H         3.547685         1.131966        -1.919286
 H         1.569702        -0.344083        -2.255771
 H         2.232438        -1.613869        -1.249285
