19
Iteration:   916charge 0 multiplicity 1
 C         0.011465        -0.629524         0.359256
 C         1.437280        -0.170623         0.047585
 C         2.469856        -0.368806         1.028588
 C         3.109959         0.792724         0.224771
 C         4.589754         1.234839         0.210947
 O         4.853115         0.177410        -0.832183
 C         3.368340         0.381844        -1.177173
 C         2.113518        -0.581069        -1.366121
 O         1.831694         1.318573         0.002357
 H        -0.232589        -0.396613         1.392089
 H        -0.858731        -0.166663        -0.181174
 H        -0.011681        -1.811784         0.110654
 H         2.193751        -0.228279         2.108546
 H         2.932777        -1.373938         0.895820
 H         4.687606         2.188795        -0.336086
 H         5.289736         1.016336         1.097440
 H         3.289560         1.237366        -1.926846
 H         1.463035        -0.163943        -2.216967
 H         2.421774        -1.664576        -1.430187
