19
Iteration:  1495charge 0 multiplicity 1
 C        -0.114411        -0.591629         0.229849
 C         1.379536        -0.230877         0.017095
 C         2.533674        -0.386717         1.046072
 C         3.156310         0.694947         0.309132
 C         4.663398         1.231958         0.145314
 O         4.815723         0.236104        -0.892633
 C         3.383573         0.338788        -1.147838
 C         2.122222        -0.640028        -1.345286
 O         1.853996         1.389752         0.136801
 H        -0.459708         0.066089         1.131601
 H        -0.624172        -0.445879        -0.717522
 H        -0.129456        -1.743670         0.541194
 H         2.231380         0.056652         2.000770
 H         3.030611        -1.357194         1.087545
 H         4.532385         2.323742        -0.216992
 H         5.436077         1.327290         0.831772
 H         3.404883         1.257947        -1.898540
 H         1.380750        -0.319149        -2.078064
 H         2.324499        -1.695701        -1.466985
