19
Iteration:  3905
 C        -0.001867        -0.557979         0.284723
 C         1.437501        -0.104833        -0.021976
 C         2.510252        -0.367679         1.059506
 C         3.133526         0.744732         0.271480
 C         4.605907         1.346041         0.092743
 O         4.825334         0.086689        -0.823361
 C         3.332670         0.337258        -1.202140
 C         2.141034        -0.634520        -1.297099
 O         1.812208         1.313286         0.129678
 H        -0.521617        -0.256285         1.181812
 H        -0.494472        -0.306790        -0.698956
 H        -0.114617        -1.677141         0.187800
 H         2.287782        -0.077973         2.126640
 H         3.142412        -1.355498         1.066166
 H         4.489892         2.268300        -0.469023
 H         5.326034         1.323821         0.881393
 H         3.180826         1.290907        -1.878000
 H         1.548346        -0.643082        -2.314264
 H         2.379682        -1.640499        -1.055748
