19
Iteration:  3627
 C        -0.080789        -0.563900         0.290535
 C         1.440539        -0.086726         0.047611
 C         2.600896        -0.361334         1.026742
 C         3.163892         0.780890         0.176101
 C         4.603801         1.285731         0.173036
 O         4.870389         0.167069        -0.789145
 C         3.382092         0.234054        -1.151389
 C         2.046337        -0.679195        -1.324156
 O         1.737675         1.348528         0.055434
 H        -0.424934        -0.194174         1.245798
 H        -0.647500        -0.337236        -0.589644
 H        -0.206024        -1.663759         0.283828
 H         2.354209         0.009746         2.021538
 H         3.313741        -1.239657         0.840141
 H         4.675761         2.192676        -0.399276
 H         5.276537         1.236039         1.057926
 H         3.342697         1.086102        -1.906050
 H         1.703484        -0.417444        -2.304227
 H         2.331081        -1.752720        -1.197425
