19
Iteration:  2718
 C         0.014277        -0.455057         0.298882
 C         1.474624        -0.178955        -0.025447
 C         2.617342        -0.330914         1.096847
 C         3.111084         0.912102         0.186705
 C         4.616645         1.153617         0.176000
 O         4.817635         0.131083        -0.862064
 C         3.317662         0.367590        -1.182886
 C         2.152392        -0.656681        -1.313467
 O         1.643607         1.224700         0.092975
 H        -0.200405         0.339284         1.079405
 H        -0.629875        -0.458824        -0.650384
 H        -0.088542        -1.530594         0.655882
 H         2.244895         0.077256         2.049989
 H         3.213194        -1.189772         1.066276
 H         4.922627         2.174448        -0.087174
 H         5.067749         0.767495         1.079603
 H         3.580530         1.166027        -1.866651
 H         1.730950        -0.526575        -2.327222
 H         2.453761        -1.771601        -1.363568
