19
Iteration:  2744charge 0 multiplicity 1
 C        -0.004873        -0.601806         0.336311
 C         1.405098        -0.145665         0.013765
 C         2.475049        -0.381088         1.046056
 C         3.149675         0.792024         0.168266
 C         4.617257         1.200846         0.196155
 O         4.793949         0.166218        -0.849429
 C         3.322316         0.345296        -1.198059
 C         2.177950        -0.720171        -1.322026
 O         1.817492         1.453741         0.073052
 H        -0.358429         0.015137         1.285884
 H        -0.580874        -0.469746        -0.597498
 H        -0.108569        -1.672377         0.512004
 H         2.189531         0.111042         2.000277
 H         3.058254        -1.414500         1.026462
 H         4.777915         2.255526        -0.201080
 H         5.226265         1.012138         1.083700
 H         3.395131         1.176090        -1.830937
 H         1.716309        -0.558607        -2.320911
 H         2.520262        -1.760759        -1.251759
