19
Iteration:  1181
 C        -0.056478        -0.512750         0.248684
 C         1.476015        -0.171642        -0.025075
 C         2.553820        -0.365717         1.055907
 C         3.210778         0.774403         0.241749
 C         4.648874         1.201478         0.205902
 O         4.766887         0.251694        -0.860010
 C         3.371498         0.238327        -1.223417
 C         2.198310        -0.658827        -1.357926
 O         1.650991         1.328354         0.143484
 H        -0.087135        -0.034585         1.311616
 H        -0.826227        -0.207845        -0.377427
 H         0.067435        -1.502625         0.340109
 H         2.210175        -0.073322         2.040504
 H         3.216331        -1.261926         1.011102
 H         4.919425         2.299163        -0.072273
 H         5.321972         0.925199         1.156728
 H         3.122920         1.096043        -1.840868
 H         1.532268        -0.320962        -2.229599
 H         2.328828        -1.780391        -1.455964
