19
Iteration:  2563
 C        -0.012749        -0.534641         0.247807
 C         1.417829        -0.111436         0.006779
 C         2.540678        -0.437782         1.028093
 C         3.161762         0.782937         0.295508
 C         4.656556         1.292579         0.090465
 O         4.810152         0.133818        -0.847104
 C         3.351228         0.297227        -1.116795
 C         2.100630        -0.576577        -1.287400
 O         1.747989         1.272662         0.074048
 H        -0.350129         0.006979         1.097208
 H        -0.554820        -0.283262        -0.659494
 H        -0.012927        -1.656350         0.578197
 H         2.324161        -0.055251         1.992888
 H         3.033380        -1.361499         1.098795
 H         4.685620         2.205346        -0.416698
 H         5.385748         1.333994         0.955628
 H         3.422743         1.033869        -1.857804
 H         1.553457        -0.158834        -2.174476
 H         2.319240        -1.638186        -1.246659
