19
Iteration:   828
 C         0.039142        -0.551657         0.294836
 C         1.390290        -0.118358         0.052767
 C         2.501319        -0.420542         1.016583
 C         3.123536         0.832883         0.187429
 C         4.632483         1.167572         0.149131
 O         4.842738         0.280693        -0.914874
 C         3.411520         0.226750        -1.179237
 C         2.194694        -0.619653        -1.288280
 O         1.675930         1.325042         0.153542
 H        -0.283199        -0.113339         1.173467
 H        -0.725764        -0.242981        -0.524785
 H         0.035622        -1.739610         0.362077
 H         1.988205        -0.109620         1.962278
 H         2.999793        -1.402499         1.076940
 H         4.891665         2.227507        -0.260925
 H         5.309992         0.911489         1.114792
 H         3.273778         1.137018        -1.811685
 H         1.829692        -0.333555        -2.309149
 H         2.195134        -1.743101        -1.229420
