19
Iteration:  1525
 C         0.056337        -0.461356         0.240710
 C         1.466779        -0.126110         0.021703
 C         2.599908        -0.383719         1.023103
 C         3.065383         0.784630         0.274088
 C         4.607473         1.142979         0.216399
 O         4.796271         0.211747        -0.914414
 C         3.375429         0.350868        -1.240034
 C         2.183266        -0.682421        -1.326490
 O         1.665656         1.308864         0.175086
 H        -0.400646         0.022143         1.098123
 H        -0.549169        -0.135290        -0.700814
 H         0.044513        -1.626243         0.431782
 H         2.337636        -0.127495         2.043633
 H         3.208715        -1.281005         0.920260
 H         4.769564         2.230431        -0.092116
 H         5.115699         0.833256         1.114096
 H         3.234050         1.162326        -2.010905
 H         1.401922        -0.713886        -2.179340
 H         2.519380        -1.707184        -1.137380
