19
Iteration:  1199
 C         0.001149        -0.609471         0.330469
 C         1.372015        -0.129292         0.026546
 C         2.510983        -0.402083         0.988702
 C         3.094818         0.781519         0.204993
 C         4.636835         1.232398         0.176521
 O         4.934523         0.182128        -0.860643
 C         3.369619         0.346829        -1.158221
 C         2.067852        -0.601991        -1.318348
 O         1.779954         1.330947         0.095304
 H        -0.381756        -0.372543         1.240801
 H        -0.571733        -0.067164        -0.475337
 H        -0.049004        -1.804515         0.081847
 H         2.203070         0.034236         1.974799
 H         3.020556        -1.437506         1.014350
 H         4.627223         2.170250        -0.257334
 H         5.118907         1.225048         1.216172
 H         3.462953         1.120111        -1.902734
 H         1.555331        -0.353638        -2.277210
 H         2.277666        -1.654639        -1.205893
