19
Iteration:  4977
 C        -0.047997        -0.550230         0.203859
 C         1.461771        -0.188770         0.074768
 C         2.641979        -0.339695         1.032954
 C         3.161364         0.868970         0.206285
 C         4.583093         1.291162         0.179584
 O         4.835811         0.089184        -0.793512
 C         3.347039         0.258606        -1.244400
 C         2.046906        -0.584370        -1.254527
 O         1.777746         1.329860         0.092122
 H        -0.638419         0.163604         0.898229
 H        -0.496119        -0.663921        -0.823833
 H        -0.202842        -1.592600         0.530817
 H         2.379070        -0.265041         2.073582
 H         3.142706        -1.366304         1.227366
 H         4.788986         2.363148        -0.154824
 H         5.148360         1.066479         1.019623
 H         3.356757         0.876964        -2.130814
 H         1.585612        -0.216573        -2.240161
 H         2.122242        -1.655141        -1.384301
