19
Iteration:   336
 C        -0.002546        -0.653396         0.395772
 C         1.399881        -0.089885         0.022070
 C         2.540232        -0.378474         1.056037
 C         3.103783         0.812778         0.193226
 C         4.621405         1.188503         0.243614
 O         4.747094         0.167326        -0.899640
 C         3.401881         0.403009        -1.217117
 C         2.142417        -0.586382        -1.398905
 O         1.838706         1.348046         0.054394
 H        -0.477105        -0.470746         1.416509
 H        -0.774126        -0.575566        -0.287026
 H         0.236190        -1.715034         0.360933
 H         2.395108         0.046027         2.096452
 H         2.928366        -1.439026         1.054008
 H         4.793889         2.171634        -0.164198
 H         5.234116         0.914238         1.216778
 H         3.237543         1.206030        -1.902041
 H         1.472407        -0.493256        -2.339471
 H         2.426844        -1.753503        -1.298802
