19
Iteration:  1496
 C        -0.115899        -0.592912         0.225627
 C         1.383208        -0.235355         0.016352
 C         2.532535        -0.388489         1.041359
 C         3.157167         0.694120         0.311058
 C         4.665233         1.236621         0.142945
 O         4.810160         0.237733        -0.891663
 C         3.380124         0.338542        -1.147398
 C         2.124780        -0.640295        -1.342049
 O         1.855683         1.389805         0.132765
 H        -0.453255         0.061982         1.140604
 H        -0.614291        -0.446939        -0.686367
 H        -0.123897        -1.697119         0.541735
 H         2.243299         0.086385         1.998057
 H         3.016329        -1.372060         1.078689
 H         4.537032         2.319802        -0.197007
 H         5.474116         1.315394         0.866588
 H         3.379589         1.244680        -1.873887
 H         1.391778        -0.314684        -2.058047
 H         2.304159        -1.703845        -1.470132
