19
Iteration:  1340charge 0 multiplicity 1
 C         0.044526        -0.435643         0.201874
 C         1.461767        -0.258274         0.028623
 C         2.717781        -0.417507         1.045311
 C         3.099285         0.865925         0.261999
 C         4.614497         1.190274         0.161990
 O         4.742258         0.165963        -0.877149
 C         3.341055         0.333119        -1.169817
 C         2.168493        -0.675611        -1.293537
 O         1.647419         1.330783         0.156755
 H        -0.473569         0.172187         0.872603
 H        -0.443483        -0.172474        -0.772721
 H        -0.410219        -1.499012         0.337103
 H         2.392774        -0.290785         2.054893
 H         3.381904        -1.274234         0.927984
 H         4.699310         2.372837        -0.169800
 H         5.242193         0.944059         0.997815
 H         3.187944         1.215621        -1.934433
 H         1.569785        -0.503214        -2.175664
 H         2.575715        -1.659947        -1.272295
