19
Iteration:   255
 C         0.044478        -0.429400         0.238426
 C         1.495475        -0.162636        -0.039778
 C         2.724718        -0.454818         1.002525
 C         3.118613         0.842534         0.214484
 C         4.591909         1.337769         0.150310
 O         4.743213         0.128215        -0.827084
 C         3.318051         0.283789        -1.199268
 C         2.127289        -0.703095        -1.328919
 O         1.642652         1.298664         0.242283
 H        -0.113580        -0.122512         1.199965
 H        -0.672427         0.155263        -0.478938
 H        -0.192686        -1.502190         0.193198
 H         2.448440        -0.379990         2.030965
 H         3.473756        -1.203489         0.800688
 H         4.879090         2.315429        -0.343147
 H         5.133088         1.208592         1.057730
 H         3.218206         0.945858        -1.978453
 H         1.553809        -0.563575        -2.264428
 H         2.375360        -1.772262        -1.137131
