19
Iteration:  4394charge 0 multiplicity 1
 C         0.057042        -0.578049         0.290701
 C         1.467202        -0.082867         0.035054
 C         2.574130        -0.388349         0.997412
 C         3.064765         0.886247         0.183198
 C         4.631582         1.228422         0.108105
 O         4.861506         0.101299        -0.688005
 C         3.334461         0.250620        -1.207126
 C         2.051023        -0.643738        -1.330129
 O         1.725714         1.384190         0.079327
 H        -0.310390        -0.310704         1.300829
 H        -0.551655        -0.301368        -0.608283
 H         0.228448        -1.685657         0.334243
 H         2.341250         0.065076         1.943505
 H         2.983835        -1.413251         1.113334
 H         4.712943         2.251693        -0.397824
 H         5.300602         1.044678         0.904674
 H         3.446103         1.055723        -1.995360
 H         1.370428        -0.363912        -2.253821
 H         2.249065        -1.692734        -1.351771
