19
Iteration:  4511
 C         0.064091        -0.473419         0.221256
 C         1.499248        -0.185315         0.078488
 C         2.616860        -0.275537         1.056190
 C         3.106284         0.874469         0.215450
 C         4.570271         1.271681         0.095260
 O         4.755794         0.045155        -0.764082
 C         3.351040         0.287895        -1.232466
 C         2.184849        -0.665391        -1.342672
 O         1.673954         1.299287         0.151264
 H        -0.345410        -0.423335         1.211382
 H        -0.386731         0.241882        -0.515710
 H        -0.172979        -1.539226        -0.115830
 H         2.287123        -0.115446         2.072589
 H         3.176228        -1.272366         0.954510
 H         4.802138         2.189007        -0.451629
 H         5.222351         0.911405         0.947944
 H         3.356118         1.139075        -1.925004
 H         1.354568        -0.507236        -2.105444
 H         2.445424        -1.666882        -1.187836
