19
Iteration:  4191
 C        -0.009738        -0.639455         0.405259
 C         1.445112        -0.142450         0.006144
 C         2.537374        -0.290557         1.043605
 C         3.052172         0.759587         0.125669
 C         4.573737         1.203474         0.248414
 O         4.822931         0.137742        -0.808695
 C         3.377667         0.307070        -1.237883
 C         2.130935        -0.581376        -1.338566
 O         1.817603         1.378651         0.004610
 H        -0.322027        -0.469995         1.446011
 H        -0.777223        -0.260415        -0.210142
 H         0.121317        -1.652021         0.135956
 H         2.128863         0.223855         1.926778
 H         3.199220        -1.199182         1.107298
 H         4.764180         2.176810        -0.280765
 H         5.235422         1.049510         1.201598
 H         3.457828         1.059358        -1.986244
 H         1.445123        -0.439646        -2.124160
 H         2.540910        -1.662054        -1.215438
