19
Iteration:   183charge 0 multiplicity 1
 C         0.030708        -0.570689         0.244458
 C         1.469899        -0.169574         0.019764
 C         2.652531        -0.323488         0.989208
 C         3.074591         0.952394         0.193450
 C         4.705605         1.165452         0.164144
 O         4.782526         0.090909        -0.866241
 C         3.333493         0.382403        -1.236479
 C         2.204623        -0.666995        -1.276564
 O         1.552738         1.363335         0.199870
 H        -0.281909        -0.343239         1.410724
 H        -0.614789        -0.019361        -0.389347
 H        -0.188973        -1.640622         0.120337
 H         2.339835        -0.203237         2.050049
 H         3.168949        -1.342139         0.904471
 H         5.218437         2.076566        -0.017843
 H         5.169647         0.656840         1.110133
 H         3.255173         1.102357        -2.196125
 H         1.626544        -0.602435        -2.198333
 H         2.606619        -1.697639        -1.136177
