19
Iteration:  4099
 C        -0.021124        -0.517986         0.264346
 C         1.404408        -0.230080         0.024887
 C         2.498788        -0.390475         1.037179
 C         3.170553         0.757677         0.216176
 C         4.676697         1.274260         0.161304
 O         4.897677         0.259806        -0.895105
 C         3.373647         0.214469        -1.148308
 C         2.111141        -0.682702        -1.273449
 O         1.719152         1.373553         0.078870
 H        -0.309961         0.006765         1.188352
 H        -0.724206        -0.165638        -0.528967
 H        -0.094022        -1.644855         0.338707
 H         2.119994         0.036395         1.990874
 H         3.050639        -1.311504         1.178002
 H         4.916786         2.314386        -0.300648
 H         5.206362         1.144564         1.093482
 H         3.054126         1.035972        -1.817778
 H         1.309998        -0.444280        -2.062757
 H         2.366924        -1.724693        -1.236938
