19
Iteration:  2566charge 0 multiplicity 1
 C        -0.020398        -0.548526         0.251164
 C         1.420846        -0.090617         0.015880
 C         2.549213        -0.436022         1.000656
 C         3.190627         0.775171         0.307462
 C         4.637519         1.279482         0.104982
 O         4.796720         0.136593        -0.845634
 C         3.361415         0.292385        -1.116763
 C         2.105127        -0.578403        -1.273046
 O         1.733595         1.285064         0.065205
 H        -0.396528         0.007778         1.099395
 H        -0.637630        -0.248405        -0.637344
 H        -0.003012        -1.605514         0.529087
 H         2.432153        -0.012934         2.037550
 H         3.038365        -1.455315         1.136968
 H         4.667299         2.284427        -0.432250
 H         5.397574         1.320902         0.864812
 H         3.460624         1.066103        -1.867935
 H         1.618675        -0.258560        -2.223270
 H         2.332043        -1.688112        -1.330766
