19
Iteration:  3665charge 0 multiplicity 1
 C         0.032337        -0.547643         0.312963
 C         1.417926        -0.183360         0.056088
 C         2.635953        -0.323917         1.021281
 C         3.079414         0.906046         0.108499
 C         4.637297         1.231819         0.156981
 O         4.687310         0.051911        -0.705975
 C         3.322406         0.347921        -1.252536
 C         2.270163        -0.661496        -1.410489
 O         1.692294         1.311608         0.140365
 H        -0.328645        -0.084564         1.273364
 H        -0.502551         0.111583        -0.405017
 H        -0.199429        -1.622802         0.289573
 H         2.592674         0.064027         2.053498
 H         3.326670        -1.128346         1.155172
 H         4.881526         2.223455        -0.408007
 H         5.168647         1.187844         1.118389
 H         3.443818         0.979795        -2.099125
 H         1.748160        -0.603937        -2.394211
 H         2.369913        -1.698285        -1.271675
