19
Iteration:  2444charge 0 multiplicity 1
 C        -0.031915        -0.551679         0.265474
 C         1.463983        -0.138427        -0.009102
 C         2.658480        -0.366416         0.931050
 C         3.112307         0.868405         0.198384
 C         4.638310         1.280116         0.116784
 O         4.785773         0.094734        -0.783572
 C         3.365704         0.282397        -1.137403
 C         2.082864        -0.658845        -1.261100
 O         1.719860         1.337250         0.149990
 H        -0.278269        -0.529813         1.249109
 H        -0.577033         0.141427        -0.304797
 H        -0.158337        -1.589536        -0.117148
 H         2.407377        -0.065691         1.938009
 H         3.187916        -1.307791         0.806356
 H         4.776043         2.254879        -0.345232
 H         5.260788         1.164578         1.047527
 H         3.482483         0.973716        -1.929705
 H         1.460123        -0.343534        -2.114881
 H         2.199475        -1.714914        -1.164597
