19
Iteration:  4562
 C         0.047440        -0.518873         0.358552
 C         1.439013        -0.151982        -0.006972
 C         2.538747        -0.365271         1.060787
 C         3.146015         0.809069         0.153826
 C         4.590001         1.160841         0.234590
 O         4.875003         0.181169        -0.813169
 C         3.364544         0.251980        -1.224907
 C         2.147270        -0.625755        -1.340367
 O         1.659958         1.370524         0.026738
 H        -0.195468        -0.180896         1.441474
 H        -0.719930        -0.132979        -0.346133
 H         0.182843        -1.617100         0.317653
 H         2.312383         0.282194         1.944760
 H         2.971089        -1.355693         1.140616
 H         4.837449         2.060256        -0.309627
 H         5.119283         0.920140         1.164107
 H         3.350550         1.040819        -2.016763
 H         1.537737        -0.295814        -2.145656
 H         2.098118        -1.784344        -1.265612
