19
Iteration:  2737charge 0 multiplicity 1
 C        -0.015995        -0.565971         0.351320
 C         1.445494        -0.146913         0.028202
 C         2.488059        -0.348019         1.035060
 C         3.129645         0.741478         0.181969
 C         4.585376         1.194846         0.237810
 O         4.772853         0.157458        -0.880339
 C         3.364795         0.301199        -1.218739
 C         2.257614        -0.664778        -1.348093
 O         1.744969         1.422376         0.088444
 H        -0.313383         0.099702         1.063831
 H        -0.595426        -0.366375        -0.525613
 H         0.055029        -1.642830         0.575293
 H         2.180095         0.135084         1.942612
 H         3.163398        -1.196393         1.227272
 H         4.830868         2.088812        -0.303560
 H         5.338989         0.976840         1.110507
 H         3.234863         1.274759        -1.882807
 H         1.648040        -0.583175        -2.244448
 H         2.438618        -1.722564        -1.333067
