19
Iteration:  1829charge 0 multiplicity 1
 C         0.018124        -0.526254         0.172461
 C         1.519012        -0.237789         0.058241
 C         2.753029        -0.385734         1.083404
 C         3.066134         0.917500         0.195897
 C         4.607296         1.199329         0.207656
 O         4.666553         0.091957        -0.819781
 C         3.301060         0.353095        -1.219606
 C         2.198979        -0.672450        -1.344587
 O         1.676598         1.390500         0.141834
 H        -0.194979         0.231017         1.005893
 H        -0.591892        -0.167438        -0.814465
 H        -0.211916        -1.518108         0.540577
 H         2.523038        -0.157051         2.148105
 H         3.252547        -1.363484         0.965279
 H         4.854569         2.158266        -0.232289
 H         5.222748         0.804247         1.126097
 H         3.219553         1.013880        -2.095972
 H         1.727480        -0.347033        -2.142031
 H         2.466328        -1.663583        -1.320739
