19
Iteration:  2386
 C        -0.000799        -0.481480         0.295059
 C         1.456039        -0.158117         0.010794
 C         2.582395        -0.370147         1.135009
 C         3.141300         0.788425         0.303706
 C         4.646232         1.225395         0.154556
 O         4.827810         0.216137        -0.916245
 C         3.349370         0.269674        -1.146190
 C         2.149491        -0.690112        -1.398577
 O         1.703259         1.309028         0.043404
 H        -0.404051         0.169932         1.176052
 H        -0.749732        -0.159068        -0.456566
 H        -0.374591        -1.519002         0.377913
 H         2.310521        -0.193216         2.163225
 H         3.215938        -1.215048         1.023723
 H         4.786941         2.284205        -0.051388
 H         5.292077         0.864984         1.013005
 H         3.243765         1.139824        -1.747487
 H         1.366086        -0.462032        -2.187556
 H         2.261186        -1.834476        -1.430653
