19
Iteration:   955charge 0 multiplicity 1
 C        -0.067022        -0.454492         0.241371
 C         1.432363        -0.273770         0.014831
 C         2.603911        -0.372169         0.984462
 C         3.090556         0.860586         0.138902
 C         4.667896         1.179920         0.245217
 O         4.785285         0.209785        -0.844185
 C         3.322720         0.416533        -1.277038
 C         2.234501        -0.711070        -1.296023
 O         1.704376         1.286900         0.219611
 H        -0.411706        -0.065591         1.205702
 H        -0.547787        -0.085262        -0.691904
 H        -0.235004        -1.459295         0.348183
 H         2.528002        -0.137106         2.051368
 H         3.202993        -1.285776         0.853038
 H         5.157461         2.195185        -0.109407
 H         5.022369         0.955532         1.265318
 H         3.215875         1.190878        -2.035339
 H         1.562485        -0.759531        -2.111603
 H         2.576687        -1.758462        -1.229690
