19
Iteration:  4817
 C        -0.069032        -0.537760         0.293953
 C         1.410105        -0.146216         0.054641
 C         2.675484        -0.280745         0.997414
 C         3.113624         0.843360         0.183212
 C         4.600687         1.167878         0.270823
 O         4.795513         0.173170        -0.874987
 C         3.351015         0.337058        -1.242151
 C         2.172141        -0.667248        -1.327597
 O         1.725712         1.248182         0.062868
 H        -0.181905         0.249386         1.021175
 H        -0.708751        -0.275868        -0.532748
 H        -0.364257        -1.499247         0.795691
 H         2.494594         0.083990         2.017209
 H         3.253439        -1.243572         1.129438
 H         5.015110         2.190607         0.188039
 H         4.939987         0.530761         1.228825
 H         3.395352         1.149364        -2.027827
 H         1.440959        -0.442362        -2.148368
 H         2.654043        -1.600228        -1.276734
