19
Iteration:  4608charge 0 multiplicity 1
 C         0.018340        -0.512234         0.235323
 C         1.432404        -0.126680         0.027667
 C         2.618642        -0.383466         0.981600
 C         3.125244         0.840294         0.167672
 C         4.599408         1.240010         0.123104
 O         4.749320         0.073509        -0.777920
 C         3.367892         0.328842        -1.225401
 C         2.169157        -0.686013        -1.243572
 O         1.713057         1.366653         0.176968
 H        -0.420378         0.278032         0.846294
 H        -0.580064        -0.427454        -0.748510
 H        -0.089545        -1.516650         0.837389
 H         2.339980        -0.102517         1.948673
 H         3.290575        -1.249408         0.759833
 H         4.639444         2.204841        -0.279148
 H         5.184025         0.885462         1.023382
 H         3.368863         1.151452        -1.994369
 H         1.644799        -0.538784        -2.219362
 H         2.576697        -1.655148        -1.178313
