19
Iteration:  2529charge 0 multiplicity 1
 C        -0.008817        -0.510116         0.265990
 C         1.426473        -0.188968         0.033519
 C         2.684746        -0.322700         0.986665
 C         3.091629         0.797640         0.143270
 C         4.601793         1.187278         0.242530
 O         4.731842         0.123754        -0.849941
 C         3.340427         0.332251        -1.214557
 C         2.225426        -0.623682        -1.337271
 O         1.750949         1.340291         0.184936
 H        -0.458080         0.223759         0.967988
 H        -0.595980        -0.451369        -0.631189
 H        -0.260744        -1.593933         0.578292
 H         2.415234         0.060174         1.933049
 H         3.261032        -1.173256         1.011820
 H         4.670960         2.119543        -0.181923
 H         5.173000         1.003328         1.197891
 H         3.198009         0.930988        -2.046176
 H         1.530054        -0.432748        -2.215808
 H         2.332372        -1.689579        -1.241862
