19
Iteration:  2322charge 0 multiplicity 1
 C        -0.034027        -0.530040         0.250325
 C         1.499921        -0.206877         0.040625
 C         2.721836        -0.310210         0.966976
 C         3.093145         0.916422         0.194898
 C         4.599556         1.235878         0.167115
 O         4.668605         0.023471        -0.820896
 C         3.341407         0.304812        -1.153013
 C         2.228797        -0.635555        -1.288172
 O         1.673603         1.352054         0.149074
 H        -0.218811         0.066251         1.112803
 H        -0.519384        -0.133156        -0.566003
 H        -0.167090        -1.630586         0.233598
 H         2.554872        -0.086549         2.021951
 H         3.345892        -1.172557         0.778814
 H         4.989758         2.138331        -0.273372
 H         5.219763         0.821225         1.059042
 H         3.236365         1.096003        -1.966340
 H         1.617082        -0.193552        -2.133612
 H         2.378880        -1.727521        -1.484996
