19
Iteration:  4722
 C         0.031550        -0.480434         0.221281
 C         1.498867        -0.137898         0.144816
 C         2.729657        -0.350271         0.963564
 C         3.107658         0.907081         0.104921
 C         4.581161         1.202260         0.225570
 O         4.743533         0.132639        -0.730107
 C         3.342356         0.290124        -1.216032
 C         2.089027        -0.717726        -1.346205
 O         1.689640         1.307865         0.079705
 H        -0.443370        -0.533140         1.307564
 H        -0.611967         0.195187        -0.318528
 H        -0.303383        -1.456644        -0.129089
 H         2.524019        -0.089875         2.094473
 H         3.317417        -1.238434         1.006577
 H         4.849577         2.134353        -0.255760
 H         5.196224         0.939215         1.025207
 H         3.315360         1.092585        -1.938588
 H         1.520084        -0.408101        -2.205355
 H         2.467848        -1.758269        -1.181326
