19
Iteration:  4698charge 0 multiplicity 1
 C         0.007309        -0.513122         0.345793
 C         1.416192        -0.167834        -0.021916
 C         2.576660        -0.389676         0.944256
 C         3.090719         0.852285         0.141851
 C         4.532783         1.233523         0.206958
 O         4.809984         0.098971        -0.836348
 C         3.418245         0.340891        -1.197200
 C         2.170927        -0.700973        -1.252556
 O         1.748022         1.396940         0.103537
 H        -0.237721        -0.625684         1.423442
 H        -0.776303         0.106519        -0.100675
 H        -0.295586        -1.539760        -0.063065
 H         2.304766         0.091835         1.865857
 H         3.220098        -1.233815         1.201376
 H         4.907701         2.116559        -0.163642
 H         5.080015         0.869235         1.078938
 H         3.389840         1.061228        -2.045180
 H         1.684462        -0.513282        -2.219029
 H         2.568288        -1.643820        -1.090162
