19
Iteration:  2893
 C         0.025887        -0.493178         0.224934
 C         1.390912        -0.195516         0.056530
 C         2.600931        -0.314746         1.011961
 C         3.127919         0.860138         0.187307
 C         4.647681         1.201532         0.143132
 O         4.746508         0.071820        -0.854084
 C         3.318224         0.392607        -1.187411
 C         2.248009        -0.655610        -1.216476
 O         1.650556         1.261168         0.108872
 H        -0.399509         0.268262         0.902318
 H        -0.393224        -0.242815        -0.771251
 H        -0.113384        -1.450626         0.661273
 H         2.320373        -0.142957         2.128447
 H         3.185008        -1.253387         0.984283
 H         4.963598         2.203024        -0.376775
 H         5.270872         1.121012         1.057478
 H         3.408474         1.303367        -1.901607
 H         1.772540        -0.482679        -2.194420
 H         2.637068        -1.717923        -1.034110
