19
Iteration:   843charge 0 multiplicity 1
 C        -0.056279        -0.578751         0.266735
 C         1.454351        -0.217597        -0.007273
 C         2.630515        -0.303586         1.038498
 C         3.113567         0.828602         0.239206
 C         4.630837         1.218885         0.195666
 O         4.809711         0.123530        -0.876530
 C         3.323334         0.401055        -1.195378
 C         2.163345        -0.662140        -1.379464
 O         1.718105         1.322095         0.173406
 H        -0.510060        -0.141620         1.258433
 H        -0.626875        -0.207544        -0.545963
 H        -0.175371        -1.662841         0.292679
 H         2.477283         0.042812         2.045740
 H         3.220423        -1.206897         1.114287
 H         4.870591         2.288366        -0.158096
 H         5.148382         0.978928         1.067044
 H         3.339511         1.216249        -2.017130
 H         1.474902        -0.535291        -2.218428
 H         2.547881        -1.658822        -1.312362
