19
Iteration:  4123
 C         0.020317        -0.474968         0.175621
 C         1.416681        -0.123315         0.130194
 C         2.615936        -0.370544         1.056102
 C         3.098004         0.792372         0.182948
 C         4.515156         1.241566         0.134953
 O         4.772684         0.166332        -0.819925
 C         3.369997         0.237967        -1.259875
 C         2.197504        -0.696583        -1.320350
 O         1.792613         1.328667         0.192766
 H        -0.462787        -0.002347         1.000556
 H        -0.556764        -0.226724        -0.742307
 H         0.146806        -1.570473         0.263083
 H         2.362636         0.092919         1.983924
 H         3.331304        -1.255657         1.213092
 H         4.544739         2.339212        -0.324258
 H         5.139972         1.193028         1.026645
 H         3.041449         1.011016        -1.986677
 H         1.576502        -0.573022        -2.333829
 H         2.358571        -1.725351        -1.083973
