19
Iteration:   835
 C        -0.027588        -0.566974         0.300287
 C         1.438562        -0.172594         0.021135
 C         2.562964        -0.358257         1.022181
 C         3.109238         0.835690         0.203434
 C         4.618445         1.190820         0.148900
 O         4.844976         0.201288        -0.895675
 C         3.400161         0.335606        -1.152024
 C         2.178673        -0.634330        -1.359476
 O         1.689871         1.319588         0.179190
 H        -0.519831        -0.193790         1.256233
 H        -0.583657        -0.259194        -0.571618
 H        -0.089528        -1.591924         0.317453
 H         2.136936         0.054257         1.949855
 H         3.146817        -1.311674         1.103891
 H         4.910284         2.113244        -0.187862
 H         5.189495         0.900446         0.996095
 H         3.206333         1.082001        -1.906341
 H         1.669574        -0.478221        -2.294519
 H         2.340968        -1.722955        -1.240029
