19
Iteration:  2475
 C        -0.023621        -0.568181         0.330699
 C         1.436968        -0.146640        -0.015305
 C         2.592894        -0.315291         1.118765
 C         3.099147         0.812461         0.195129
 C         4.578879         1.231840         0.143564
 O         4.832869         0.085418        -0.862748
 C         3.387116         0.344854        -1.145730
 C         2.140980        -0.579386        -1.406564
 O         1.759949         1.289762         0.078086
 H        -0.262122        -0.455700         1.433982
 H        -0.772291        -0.027513        -0.200894
 H         0.013505        -1.757814         0.195098
 H         2.244615         0.229001         1.955306
 H         3.038725        -1.211173         1.369300
 H         4.858006         2.184831        -0.151419
 H         4.984423         0.975860         1.195715
 H         3.455965         1.066731        -1.894125
 H         1.418025        -0.250916        -2.236126
 H         2.319718        -1.632212        -1.591901
