19
Iteration:  4601
 C        -0.006698        -0.491535         0.249492
 C         1.459677        -0.182494         0.056708
 C         2.641923        -0.395039         0.992510
 C         3.088081         0.798635         0.187439
 C         4.637430         1.212169         0.107284
 O         4.784372         0.090234        -0.764595
 C         3.348156         0.342583        -1.222816
 C         2.183935        -0.667339        -1.298086
 O         1.700514         1.415215         0.111415
 H        -0.474474         0.152784         0.986837
 H        -0.654987        -0.581664        -0.609150
 H        -0.151078        -1.467383         0.779629
 H         2.285773        -0.162102         2.024828
 H         3.100788        -1.408216         1.032329
 H         4.693739         2.310990        -0.236452
 H         5.235643         1.050506         1.028145
 H         3.298636         1.197833        -1.882931
 H         1.440974        -0.409785        -2.123304
 H         2.566886        -1.691199        -1.248169
