19
Iteration:  1895
 C         0.028588        -0.539907         0.280173
 C         1.386005        -0.181858        -0.042832
 C         2.507232        -0.395667         1.062425
 C         3.150392         0.808540         0.293425
 C         4.583660         1.265191         0.196417
 O         4.923605         0.195131        -0.906086
 C         3.327595         0.306805        -1.121836
 C         2.089277        -0.673402        -1.352526
 O         1.801979         1.336353         0.055327
 H        -0.184900        -0.199790         1.370971
 H        -0.906532        -0.224146        -0.275565
 H        -0.271853        -1.605019         0.275620
 H         2.162485         0.001157         2.046206
 H         3.056545        -1.366133         1.094221
 H         4.796007         2.225171        -0.268542
 H         5.200111         1.120924         1.200086
 H         3.232258         1.010223        -1.881685
 H         1.475410        -0.347818        -2.130134
 H         2.295261        -1.711035        -1.435383
