19
Iteration:   981
 C        -0.026214        -0.503136         0.150729
 C         1.453704        -0.137931         0.054538
 C         2.672490        -0.394404         1.013081
 C         3.107512         0.786714         0.257049
 C         4.550630         1.216773         0.144222
 O         4.753976         0.169484        -0.862349
 C         3.331969         0.327576        -1.171142
 C         2.179862        -0.612184        -1.317554
 O         1.779037         1.304146         0.216356
 H        -0.569782        -0.028369         0.926293
 H        -0.410739        -0.238117        -0.833305
 H        -0.130819        -1.629309         0.337163
 H         2.484324        -0.243313         2.120839
 H         3.279850        -1.333936         0.893831
 H         4.574325         2.145371        -0.293029
 H         5.235580         1.156595         1.083495
 H         3.199452         1.187141        -1.901278
 H         1.582857        -0.598956        -2.295116
 H         2.316604        -1.711860        -1.097012
