19
Iteration:  2714
 C        -0.003303        -0.468709         0.299802
 C         1.487691        -0.208466         0.011944
 C         2.607265        -0.355930         1.060569
 C         3.110284         0.897461         0.157091
 C         4.651430         1.175981         0.170402
 O         4.820903         0.141723        -0.824396
 C         3.285129         0.377509        -1.171822
 C         2.133297        -0.669216        -1.302523
 O         1.639200         1.248834         0.075896
 H        -0.241757         0.352752         0.877175
 H        -0.508639        -0.293069        -0.615690
 H        -0.080235        -1.484560         0.637520
 H         2.302048        -0.028207         2.031848
 H         3.405855        -1.158066         1.086813
 H         5.111107         2.111575        -0.169212
 H         5.134066         0.740334         1.154905
 H         3.494798         1.241094        -1.903466
 H         1.660268        -0.564034        -2.277387
 H         2.419521        -1.671072        -1.380027
