19
Iteration:  4804charge 0 multiplicity 1
 C        -0.055683        -0.474434         0.344798
 C         1.469741        -0.263838         0.055590
 C         2.596458        -0.336061         1.039385
 C         3.103421         0.866549         0.099243
 C         4.620334         1.080998         0.285433
 O         4.841819         0.247485        -0.860168
 C         3.329312         0.318039        -1.243447
 C         2.195741        -0.696299        -1.321184
 O         1.702701         1.377534         0.085243
 H        -0.568336         0.154345         0.973225
 H        -0.608105        -0.483515        -0.620693
 H        -0.147857        -1.507085         0.730794
 H         2.321912        -0.033119         2.007611
 H         3.256096        -1.234406         0.848485
 H         5.058648         2.071481        -0.005662
 H         5.100526         0.776416         1.276927
 H         3.185579         1.054172        -2.066381
 H         1.644037        -0.484367        -2.292311
 H         2.263167        -1.766077        -1.399443
