19
Iteration:  2621
 C         0.050458        -0.517471         0.301449
 C         1.446068        -0.146043         0.097613
 C         2.656523        -0.315325         1.034315
 C         3.083168         0.853806         0.193199
 C         4.619014         1.134819         0.268379
 O         4.788572         0.131958        -0.831879
 C         3.318656         0.351994        -1.265736
 C         2.185616        -0.683083        -1.330732
 O         1.634380         1.314573         0.036479
 H        -0.274218        -0.330850         1.359291
 H        -0.591256         0.261891        -0.250611
 H        -0.273480        -1.483189        -0.137489
 H         2.538714         0.153441         2.074227
 H         3.478319        -1.102380         0.906769
 H         5.006361         2.108943        -0.153895
 H         5.051017         0.850407         1.197438
 H         3.379345         1.129273        -2.026999
 H         1.483173        -0.605065        -2.187291
 H         2.443633        -1.790909        -1.464666
