19
Iteration:  2866
 C        -0.008926        -0.541312         0.280473
 C         1.388599        -0.222810         0.002615
 C         2.600308        -0.261534         1.089025
 C         3.146504         0.798012         0.211185
 C         4.603374         1.214396         0.203334
 O         4.848580         0.201324        -0.843044
 C         3.310854         0.290177        -1.191412
 C         2.068568        -0.743170        -1.352001
 O         1.794548         1.361901         0.047353
 H        -0.321536         0.008947         1.204447
 H        -0.490460        -0.286917        -0.675640
 H        -0.001237        -1.641826         0.562682
 H         2.249060         0.066621         2.049975
 H         3.168546        -1.278474         1.163692
 H         4.853290         2.211327        -0.082673
 H         5.204451         0.985567         1.155122
 H         3.291903         1.105357        -1.863696
 H         1.579374        -0.313252        -2.235022
 H         2.194935        -1.791016        -1.298922
