19
Iteration:  4643
 C        -0.009568        -0.535708         0.233462
 C         1.444816        -0.187091         0.065683
 C         2.598013        -0.319150         1.045991
 C         3.137913         0.833810         0.173762
 C         4.574294         1.191848         0.147407
 O         4.785266         0.132212        -0.793561
 C         3.326424         0.324399        -1.230772
 C         2.123054        -0.685349        -1.275578
 O         1.754849         1.367529         0.137621
 H        -0.396696         0.188629         0.950617
 H        -0.409931        -0.281701        -0.792237
 H        -0.273793        -1.683867         0.423888
 H         2.615672        -0.091061         2.097996
 H         3.353413        -1.139040         0.979426
 H         4.902799         2.148354        -0.207788
 H         5.264044         1.013134         1.004427
 H         3.398630         1.004393        -2.096459
 H         1.510808        -0.444829        -2.208690
 H         2.377773        -1.700509        -1.397372
