19
Iteration:  2877charge 0 multiplicity 1
 C         0.026397        -0.487787         0.250748
 C         1.526074        -0.198284         0.042084
 C         2.596644        -0.354684         1.111164
 C         3.092831         0.857416         0.245130
 C         4.612439         1.196790         0.157529
 O         4.795830         0.163653        -0.865023
 C         3.365021         0.293162        -1.165048
 C         2.164039        -0.659117        -1.303512
 O         1.671801         1.346187         0.030013
 H        -0.533184         0.140165         0.981036
 H        -0.722405        -0.435830        -0.562511
 H        -0.186864        -1.580396         0.503688
 H         2.372866         0.013458         2.097159
 H         3.212883        -1.349912         1.170006
 H         4.874765         2.149165        -0.221473
 H         5.237867         0.833483         1.047422
 H         3.227676         0.991251        -1.955386
 H         1.494779        -0.495074        -2.176170
 H         2.268705        -1.707880        -1.410227
