19
Iteration:  2471
 C        -0.023396        -0.574117         0.321192
 C         1.478125        -0.146811         0.011256
 C         2.574385        -0.357584         1.173223
 C         3.071229         0.799989         0.155115
 C         4.593810         1.229448         0.157317
 O         4.857430         0.078073        -0.840252
 C         3.318112         0.330193        -1.192064
 C         2.150724        -0.555531        -1.417557
 O         1.758975         1.306238         0.062597
 H        -0.256817        -0.578472         1.495657
 H        -0.760518         0.087036        -0.260566
 H         0.077614        -1.627091         0.185674
 H         2.255266         0.297816         2.030739
 H         3.045271        -1.369803         1.371457
 H         4.824012         2.283189        -0.259748
 H         5.066712         1.140075         1.124082
 H         3.506525         1.244025        -1.888799
 H         1.444946        -0.186928        -2.163981
 H         2.309500        -1.669366        -1.526932
