19
Iteration:   496
 C         0.016304        -0.592329         0.230880
 C         1.422641        -0.178714         0.088181
 C         2.637909        -0.479855         0.899467
 C         3.100663         0.844512         0.219951
 C         4.614332         1.277426         0.118485
 O         4.806037         0.111838        -0.792692
 C         3.308030         0.342119        -1.169249
 C         2.116212        -0.565410        -1.318314
 O         1.736585         1.364076         0.207512
 H        -0.423999         0.108747         1.085248
 H        -0.499278        -0.335397        -0.710866
 H        -0.000070        -1.625133         0.426401
 H         2.599673        -0.277928         1.973405
 H         3.090418        -1.465917         0.742975
 H         4.786777         2.256557        -0.420532
 H         5.268374         1.143518         1.031653
 H         3.373142         1.296605        -1.901160
 H         1.482665        -0.412756        -2.156667
 H         2.373261        -1.594354        -1.360796
