19
Iteration:  3189
 C        -0.018175        -0.464789         0.248235
 C         1.446394        -0.187526         0.104510
 C         2.720986        -0.321535         1.017455
 C         3.086762         0.892978         0.143541
 C         4.547944         1.234495         0.218834
 O         4.784066         0.103126        -0.831072
 C         3.418237         0.293414        -1.165249
 C         2.120333        -0.712992        -1.272309
 O         1.686047         1.285233         0.043245
 H        -0.416959        -0.218400         1.311145
 H        -0.518663         0.203958        -0.526412
 H        -0.202941        -1.553253         0.090429
 H         2.528967         0.060939         2.071239
 H         3.447107        -1.177984         0.734783
 H         4.896598         2.296348        -0.008087
 H         5.023917         0.950457         1.228879
 H         3.432058         0.900536        -2.098221
 H         1.710148        -0.222680        -2.220935
 H         2.033927        -1.784497        -1.344931
