19
Iteration:  1548charge 0 multiplicity 1
 C        -0.078813        -0.534690         0.263545
 C         1.431088        -0.214636         0.032810
 C         2.686193        -0.368853         0.944544
 C         3.085539         0.894138         0.135766
 C         4.671939         1.192376         0.252410
 O         4.732063         0.145727        -0.843085
 C         3.305050         0.391589        -1.210877
 C         2.232068        -0.662062        -1.306205
 O         1.716574         1.315448         0.181717
 H        -0.360603        -0.119161         1.302533
 H        -0.587086         0.169438        -0.460886
 H        -0.381116        -1.706610         0.214262
 H         2.425405        -0.042190         1.946047
 H         3.227499        -1.310350         0.953809
 H         5.238329         2.133295        -0.122838
 H         4.855453         0.834991         1.237733
 H         3.357973         1.064023        -2.156984
 H         1.667078        -0.656398        -2.319713
 H         2.706013        -1.636300        -1.182486
