19
Iteration:  2146charge 0 multiplicity 1
 C         0.016992        -0.476442         0.317149
 C         1.491159        -0.218901         0.013152
 C         2.683433        -0.316225         0.960599
 C         3.112879         0.820877         0.164981
 C         4.616922         1.150832         0.248713
 O         4.703014         0.149275        -0.796693
 C         3.346672         0.385833        -1.224421
 C         2.147118        -0.627321        -1.321486
 O         1.699767         1.257316         0.066531
 H        -0.027100        -0.074139         1.401689
 H        -0.575414         0.036711        -0.407007
 H        -0.275558        -1.516661         0.456655
 H         2.362400         0.090450         1.930345
 H         3.014463        -1.376827         1.039909
 H         4.960314         2.101278        -0.102805
 H         5.166825         1.008476         1.305092
 H         3.327605         1.263429        -2.046436
 H         1.477622        -0.475702        -2.204537
 H         2.467232        -1.707602        -1.425819
