19
Iteration:  4935
 C        -0.008598        -0.464482         0.372831
 C         1.481516        -0.106979        -0.011615
 C         2.514265        -0.412172         0.968508
 C         3.036554         0.770136         0.184193
 C         4.626095         1.214518         0.238124
 O         4.780469         0.146843        -0.858296
 C         3.354674         0.323311        -1.203448
 C         2.286715        -0.657752        -1.326651
 O         1.707172         1.343581         0.076238
 H        -0.250465        -0.033121         1.437146
 H        -0.752524        -0.070023        -0.432887
 H        -0.128123        -1.674901         0.379379
 H         2.078351         0.018077         1.848937
 H         3.153337        -1.362937         1.231580
 H         4.934498         2.097736        -0.268036
 H         5.112776         0.970161         1.183282
 H         3.504917         0.943799        -2.061944
 H         1.577134        -0.699169        -2.279317
 H         2.798511        -1.550388        -1.021049
