19
Iteration:  2085charge 0 multiplicity 1
 C         0.041595        -0.601228         0.257179
 C         1.429870        -0.077907         0.057089
 C         2.545476        -0.394833         1.113337
 C         3.165498         0.792396         0.218133
 C         4.582086         1.244488         0.118576
 O         4.865314         0.105461        -0.809991
 C         3.329518         0.267368        -1.204813
 C         2.091357        -0.568924        -1.396828
 O         1.776342         1.383631         0.119687
 H        -0.264883        -0.401618         1.298976
 H        -0.772678        -0.130637        -0.342405
 H         0.152163        -1.702393        -0.130549
 H         2.157846        -0.103937         2.114892
 H         2.750568        -1.483558         1.237591
 H         4.566990         2.201635        -0.533633
 H         5.109949         1.236557         0.984516
 H         3.351076         1.099280        -1.816471
 H         1.463671        -0.389130        -2.265215
 H         2.329931        -1.603647        -1.280795
