19
Iteration:  4987
 C        -0.024066        -0.566236         0.161360
 C         1.450982        -0.142090         0.113131
 C         2.640364        -0.332447         1.055782
 C         3.108110         0.815879         0.093234
 C         4.596042         1.281206         0.180897
 O         4.772786         0.062211        -0.786260
 C         3.423364         0.307654        -1.236790
 C         2.128978        -0.597049        -1.249693
 O         1.732698         1.278557         0.154457
 H        -0.530011         0.206927         0.848719
 H        -0.557120        -0.459078        -0.791106
 H        -0.095098        -1.455863         0.681202
 H         2.406138         0.114040         2.037663
 H         3.147235        -1.293031         0.782628
 H         4.871986         2.222508        -0.435522
 H         5.096655         1.174071         1.103117
 H         3.436066         1.099990        -2.010849
 H         1.494981        -0.106652        -2.029772
 H         2.086473        -1.683763        -1.314539
