19
Iteration:   876charge 0 multiplicity 1
 C         0.136864        -0.571631         0.237145
 C         1.469725        -0.146301         0.053560
 C         2.687014        -0.348239         0.945380
 C         3.061718         0.985116         0.209271
 C         4.580316         1.199740         0.145574
 O         4.720545         0.054225        -0.764791
 C         3.345074         0.300199        -1.224989
 C         2.148869        -0.621765        -1.327184
 O         1.634607         1.303830         0.209418
 H        -0.443902        -0.170955         1.195622
 H        -0.373641        -0.098420        -0.561686
 H         0.091571        -1.603290        -0.027376
 H         2.567108        -0.142256         1.982028
 H         3.276761        -1.221226         0.714173
 H         4.868260         2.278713        -0.281951
 H         5.026165         1.041644         1.074362
 H         3.640061         1.090866        -1.954148
 H         1.494593        -0.324522        -2.136258
 H         2.335797        -1.665692        -1.403064
