19
Iteration:  4854charge 0 multiplicity 1
 C         0.021936        -0.563293         0.244965
 C         1.444946        -0.132667        -0.052706
 C         2.568037        -0.379910         1.007159
 C         3.110955         0.837440         0.251713
 C         4.582217         1.292501         0.049497
 O         4.764719         0.069172        -0.781362
 C         3.393968         0.283117        -1.093398
 C         2.172468        -0.653919        -1.348592
 O         1.765807         1.405425         0.171125
 H        -0.387768        -0.319240         1.397441
 H        -0.761481        -0.111851        -0.420297
 H        -0.117261        -1.642885         0.159930
 H         2.434413        -0.021274         2.117666
 H         2.996933        -1.361528         0.876004
 H         4.749141         2.306925        -0.375354
 H         5.228597         1.148497         0.898585
 H         3.343386         1.025003        -1.885664
 H         1.620911        -0.525710        -2.240434
 H         2.201434        -1.806334        -1.292206
