19
Iteration:  3358charge 0 multiplicity 1
 C        -0.048086        -0.526279         0.294832
 C         1.402430        -0.203861         0.038216
 C         2.635669        -0.261744         1.003410
 C         3.136151         0.804615         0.095635
 C         4.631583         1.197291         0.224137
 O         4.902793         0.150220        -0.772733
 C         3.376472         0.300010        -1.243781
 C         2.082991        -0.661362        -1.291691
 O         1.680522         1.312160         0.070974
 H        -0.241697        -0.158279         1.277432
 H        -0.657178         0.088007        -0.303713
 H        -0.177849        -1.603344         0.304548
 H         2.220380         0.075600         2.010865
 H         3.223116        -1.156714         1.169223
 H         4.918757         2.206348        -0.230054
 H         5.008646         1.114537         1.218772
 H         3.365919         1.011220        -2.112594
 H         1.398159        -0.485547        -2.085550
 H         2.333430        -1.794028        -1.300732
