19
Iteration:  3054
 C         0.014300        -0.526628         0.247235
 C         1.457896        -0.104258        -0.019550
 C         2.546097        -0.356532         1.079966
 C         3.156079         0.757244         0.243217
 C         4.655551         1.282468         0.099252
 O         4.762430         0.125710        -0.825364
 C         3.334649         0.300222        -1.125576
 C         2.171128        -0.662943        -1.384266
 O         1.761540         1.316633         0.123259
 H        -0.604371        -0.035613         1.087094
 H        -0.583672        -0.264295        -0.661876
 H        -0.021947        -1.622760         0.584914
 H         2.080863         0.069910         2.006294
 H         2.931171        -1.391109         1.212716
 H         4.624258         2.260062        -0.308914
 H         5.412527         1.302779         1.003410
 H         3.251079         1.045722        -1.857187
 H         1.466895        -0.507598        -2.161818
 H         2.364936        -1.728655        -1.183547
