19
Iteration:  2027
 C        -0.009953        -0.412497         0.260764
 C         1.498834        -0.176874         0.046406
 C         2.674201        -0.376746         0.962510
 C         3.093491         0.875221         0.110915
 C         4.496432         1.096013         0.284041
 O         4.738666         0.169293        -0.883950
 C         3.368321         0.359215        -1.284836
 C         2.259472        -0.665088        -1.252256
 O         1.685515         1.287698         0.192581
 H        -0.384496         0.309799         1.128967
 H        -0.410023        -0.264459        -0.723945
 H        -0.086496        -1.471689         0.662585
 H         2.252548        -0.141166         1.954374
 H         3.256524        -1.373718         0.881610
 H         4.732822         2.106419        -0.069704
 H         5.138648         0.939221         1.204666
 H         3.187113         1.011544        -2.124867
 H         1.656730        -0.688658        -2.140466
 H         2.624960        -1.646603        -1.070798
