19
Iteration:  4711
 C        -0.030355        -0.529202         0.271241
 C         1.441542        -0.165620         0.054766
 C         2.680937        -0.312955         1.031195
 C         3.103054         0.840160         0.138238
 C         4.581960         1.225661         0.272358
 O         4.747982         0.097830        -0.793641
 C         3.310875         0.303112        -1.297342
 C         2.208354        -0.653024        -1.287266
 O         1.744230         1.348132         0.072574
 H        -0.166950        -0.459276         1.423519
 H        -0.544376         0.293133        -0.193035
 H        -0.201722        -1.497032        -0.200101
 H         2.662146        -0.182733         2.178822
 H         3.133965        -1.195225         0.667700
 H         4.885109         2.190921        -0.118310
 H         4.937285         1.151510         1.252988
 H         3.323018         0.970318        -2.143641
 H         1.521470        -0.661883        -2.129693
 H         2.344598        -1.759887        -1.227518
