19
Iteration:  3448
 C         0.011834        -0.554514         0.254780
 C         1.407724        -0.190391         0.028645
 C         2.683721        -0.334167         1.059292
 C         3.086573         0.800461         0.183276
 C         4.650120         1.180955         0.189208
 O         4.817526         0.196253        -0.808516
 C         3.312844         0.307591        -1.172995
 C         2.046396        -0.670126        -1.239517
 O         1.767407         1.344913        -0.021062
 H        -0.439358        -0.000902         1.131511
 H        -0.649955        -0.112616        -0.510990
 H        -0.132153        -1.582893         0.441257
 H         2.124441         0.074795         1.978587
 H         3.193697        -1.276655         1.071703
 H         4.913487         2.181536        -0.167392
 H         5.244893         1.105158         1.212130
 H         3.362115         1.131877        -1.989920
 H         1.582854        -0.445075        -2.271525
 H         2.380432        -1.730834        -1.086125
