19
Iteration:  4642charge 0 multiplicity 1
 C        -0.014224        -0.531501         0.230319
 C         1.445130        -0.181948         0.067458
 C         2.609868        -0.328729         1.048635
 C         3.142996         0.837600         0.163472
 C         4.574604         1.200616         0.143891
 O         4.781869         0.128804        -0.788827
 C         3.324633         0.321655        -1.231580
 C         2.121540        -0.700289        -1.278000
 O         1.748320         1.377830         0.147604
 H        -0.384603         0.190206         0.919646
 H        -0.416966        -0.290546        -0.808962
 H        -0.232453        -1.683967         0.430677
 H         2.594172        -0.082599         2.068238
 H         3.367673        -1.148181         0.987194
 H         4.893922         2.134659        -0.166559
 H         5.265190         0.984794         1.009382
 H         3.400526         1.029655        -2.090647
 H         1.519146        -0.475377        -2.202629
 H         2.379240        -1.690749        -1.438339
