19
Iteration:  2093
 C         0.041027        -0.575718         0.293002
 C         1.388599        -0.093040         0.025153
 C         2.543470        -0.375578         1.064643
 C         3.122887         0.766060         0.246606
 C         4.607682         1.250904         0.133775
 O         4.826672         0.114097        -0.773593
 C         3.320852         0.300530        -1.284452
 C         2.095578        -0.610663        -1.384186
 O         1.825520         1.376715         0.144170
 H        -0.434240        -0.733730         1.354929
 H        -0.672817        -0.112477        -0.328468
 H         0.012655        -1.684804        -0.050731
 H         2.090250         0.044002         2.000331
 H         3.097834        -1.405897         1.188231
 H         4.779341         2.190615        -0.452555
 H         5.207005         1.404882         1.110020
 H         3.504543         1.042117        -2.109034
 H         1.560563        -0.419027        -2.294488
 H         2.310449        -1.643964        -1.305845
