19
Iteration:  3456charge 0 multiplicity 1
 C         0.021915        -0.540604         0.297393
 C         1.451222        -0.203843         0.000010
 C         2.615769        -0.322555         1.034662
 C         3.078007         0.845578         0.149556
 C         4.542935         1.180420         0.178349
 O         4.834479         0.122725        -0.791789
 C         3.325455         0.345417        -1.219864
 C         2.150804        -0.682752        -1.250126
 O         1.736819         1.384428         0.036225
 H        -0.214532         0.007965         1.249140
 H        -0.574636        -0.031349        -0.480468
 H        -0.196491        -1.621538         0.425282
 H         2.408982         0.021833         2.125196
 H         3.225759        -1.206714         1.182498
 H         4.849527         2.219353        -0.032427
 H         5.043424         0.786146         0.966825
 H         3.291518         1.141273        -1.961260
 H         1.660743        -0.636684        -2.218286
 H         2.458749        -1.771356        -1.279081
