19
Iteration:  2411charge 0 multiplicity 1
 C         0.005939        -0.439633         0.298889
 C         1.486108        -0.182157         0.089033
 C         2.622214        -0.387393         0.948319
 C         3.091736         0.856354         0.126866
 C         4.553467         1.200789         0.186807
 O         4.739875         0.135028        -0.804069
 C         3.329321         0.346991        -1.271216
 C         2.256846        -0.703861        -1.322300
 O         1.733145         1.299344         0.194423
 H        -0.412633        -0.117385         1.132050
 H        -0.467967         0.045702        -0.469382
 H        -0.365802        -1.435152         0.003211
 H         2.509088         0.131872         1.904474
 H         3.115565        -1.340252         1.087395
 H         4.627328         2.199578        -0.219021
 H         5.298643         0.991787         1.026749
 H         3.279917         1.184873        -1.969096
 H         1.495413        -0.720646        -2.115543
 H         2.532588        -1.703486        -1.127863
