19
Iteration:  2694
 C        -0.062596        -0.508813         0.260876
 C         1.450552        -0.219484         0.057838
 C         2.722069        -0.353844         0.976713
 C         3.122031         0.886141         0.177516
 C         4.644887         1.243244         0.233367
 O         4.724000         0.113788        -0.800151
 C         3.353475         0.307026        -1.225134
 C         2.131595        -0.674697        -1.250786
 O         1.727818         1.363987         0.083346
 H        -0.391439         0.074713         1.059929
 H        -0.624609        -0.403254        -0.685092
 H        -0.271055        -1.640775         0.417324
 H         2.627218        -0.073132         1.988946
 H         3.030801        -1.305729         0.726185
 H         4.654324         2.227631        -0.170408
 H         5.349831         1.007811         1.126809
 H         3.540057         1.058473        -2.067890
 H         1.538813        -0.493563        -2.169218
 H         2.299546        -1.766992        -1.345936
