19
Iteration:  3166charge 0 multiplicity 1
 C         0.003123        -0.583370         0.255945
 C         1.420713        -0.156300         0.020954
 C         2.611080        -0.307892         1.010507
 C         3.128627         0.817759         0.110021
 C         4.650061         1.234580         0.101920
 O         4.836770         0.089780        -0.679898
 C         3.293353         0.322092        -1.264240
 C         2.106854        -0.642359        -1.299647
 O         1.728554         1.357413         0.157292
 H        -0.383054        -0.384332         1.360551
 H        -0.559800         0.101629        -0.438268
 H        -0.197603        -1.649481         0.007391
 H         2.374792         0.175445         2.023689
 H         3.092061        -1.309527         0.893748
 H         4.907853         2.207047        -0.389377
 H         5.188739         1.292444         1.154542
 H         3.516185         0.994891        -2.041213
 H         1.495934        -0.641106        -2.226728
 H         2.282647        -1.675254        -1.031867
