19
Iteration:  2102
 C        -0.048586        -0.592674         0.302261
 C         1.446536        -0.145124        -0.012754
 C         2.543917        -0.341564         0.957901
 C         3.134551         0.815966         0.148537
 C         4.589752         1.255998         0.163945
 O         4.774863         0.104807        -0.739948
 C         3.382543         0.322728        -1.231883
 C         2.121588        -0.643579        -1.322565
 O         1.808307         1.361168         0.181192
 H        -0.188511        -0.540112         1.447369
 H        -0.702388         0.023044        -0.283481
 H        -0.083158        -1.595697        -0.055255
 H         2.401713         0.116665         1.940903
 H         3.298627        -1.164539         0.970910
 H         4.741009         2.222512        -0.258187
 H         5.422435         1.019342         1.000058
 H         3.289937         1.061068        -2.145770
 H         1.545268        -0.411236        -2.240193
 H         2.228006        -1.765350        -1.323967
