19
Iteration:  2977
 C         0.013008        -0.521770         0.395304
 C         1.381813        -0.204031         0.048248
 C         2.593516        -0.314975         0.943253
 C         3.067084         0.870945         0.163071
 C         4.586193         1.234961         0.220035
 O         4.782713         0.068944        -0.815650
 C         3.438897         0.317386        -1.191557
 C         2.251571        -0.656384        -1.349634
 O         1.683786         1.354361         0.083357
 H        -0.052710        -0.381836         1.471250
 H        -0.706306         0.074734        -0.228674
 H        -0.548864        -1.494479         0.135251
 H         2.062105         0.137631         1.792315
 H         3.199626        -1.273145         0.885628
 H         4.890587         2.043082        -0.346781
 H         5.274053         1.047091         1.154398
 H         3.435165         1.027665        -1.984552
 H         1.706421        -0.502186        -2.306878
 H         2.617030        -1.683573        -1.425567
