19
Iteration:  4337
 C         0.070858        -0.490315         0.294176
 C         1.496756        -0.166782         0.006893
 C         2.601776        -0.323546         1.026569
 C         3.074856         0.924340         0.169287
 C         4.649802         1.202405         0.220885
 O         4.789219         0.105563        -0.830325
 C         3.342522         0.323114        -1.208277
 C         2.172326        -0.710468        -1.268505
 O         1.593402         1.249894         0.032176
 H        -0.037366        -0.119074         1.287778
 H        -0.418055         0.239696        -0.423940
 H        -0.263960        -1.529921         0.009187
 H         2.308034         0.029537         2.076595
 H         3.208247        -1.259176         1.213661
 H         5.147814         2.164056        -0.166059
 H         5.326019         1.088826         1.151416
 H         3.295210         1.272802        -1.807667
 H         1.386546        -0.393348        -2.128966
 H         2.340737        -1.810080        -1.166905
