19
Iteration:   711
 C         0.099686        -0.695936         0.318954
 C         1.429150        -0.059212        -0.038662
 C         2.546935        -0.285413         1.002104
 C         3.106921         0.817133         0.204491
 C         4.660277         1.143874         0.154826
 O         4.888679         0.134865        -0.814775
 C         3.370249         0.324470        -1.193149
 C         2.000689        -0.572056        -1.329710
 O         1.705088         1.362278         0.127390
 H        -0.004370        -0.593665         1.341663
 H        -0.859637        -0.417410        -0.145318
 H         0.263919        -1.795926         0.093937
 H         2.177148         0.146448         1.953213
 H         3.028334        -1.254078         1.102317
 H         4.740716         2.205494        -0.072070
 H         5.140644         0.892510         1.028768
 H         3.321769         1.210530        -1.894174
 H         1.429379        -0.262522        -2.272013
 H         2.027213        -1.673647        -1.393598
