19
Iteration:  3717
 C         0.040119        -0.538784         0.315955
 C         1.410289        -0.109533        -0.008819
 C         2.496309        -0.325692         1.066143
 C         3.164035         0.788363         0.179364
 C         4.579388         1.207998         0.206420
 O         4.797059         0.189575        -0.872638
 C         3.347611         0.277637        -1.176647
 C         2.128453        -0.742492        -1.331754
 O         1.814895         1.394354         0.062338
 H        -0.183340        -0.400481         1.414956
 H        -0.645662        -0.339434        -0.503802
 H         0.095074        -1.629608         0.263854
 H         2.152677         0.029419         2.155538
 H         3.145698        -1.162326         1.301571
 H         4.736066         2.264824        -0.159172
 H         4.974715         0.986869         1.131355
 H         3.246159         1.109223        -1.911387
 H         1.588290        -0.560809        -2.217177
 H         2.435191        -1.842849        -1.352565
