19
Iteration:  2651
 C         0.027178        -0.589359         0.304870
 C         1.398518        -0.136749        -0.012356
 C         2.513997        -0.382029         1.018225
 C         3.148274         0.802549         0.225453
 C         4.657509         1.281979         0.129782
 O         4.792818         0.101643        -0.772974
 C         3.408068         0.324774        -1.184337
 C         2.130266        -0.635047        -1.306792
 O         1.743957         1.354879         0.084974
 H        -0.122812        -0.425050         1.345915
 H        -0.770410        -0.053154        -0.269865
 H        -0.411134        -1.663834         0.108711
 H         2.225058         0.080451         1.935794
 H         3.200030        -1.164617         1.060389
 H         4.803651         2.124777        -0.512794
 H         5.433320         1.251231         0.965771
 H         3.207016         1.018614        -2.068596
 H         1.500158        -0.223557        -2.138783
 H         2.271918        -1.761984        -1.341252
