19
Iteration:  3078
 C         0.004671        -0.465367         0.276652
 C         1.425044        -0.255747        -0.015743
 C         2.595281        -0.378228         1.006029
 C         3.051097         0.845438         0.174846
 C         4.586584         1.155471         0.179716
 O         4.798967         0.144850        -0.856236
 C         3.327432         0.362108        -1.165298
 C         2.219449        -0.697543        -1.269902
 O         1.770940         1.413094         0.107074
 H        -0.584705         0.147428         1.013873
 H        -0.548398        -0.360646        -0.631224
 H        -0.023112        -1.436581         0.710231
 H         2.410255        -0.244041         2.135409
 H         3.281094        -1.226563         0.841442
 H         4.745303         2.136306        -0.148527
 H         5.061696         1.086884         1.146604
 H         3.203708         1.010636        -1.977537
 H         1.670720        -0.614032        -2.143952
 H         2.479119        -1.734986        -1.026669
