19
Iteration:   474charge 0 multiplicity 1
 C         0.015334        -0.483657         0.184861
 C         1.487675        -0.207710        -0.009293
 C         2.762018        -0.324016         1.013433
 C         3.099294         0.854681         0.161624
 C         4.632040         1.140512         0.265003
 O         4.671588         0.203783        -0.895432
 C         3.311749         0.346212        -1.269361
 C         2.180273        -0.678625        -1.323772
 O         1.646747         1.271529         0.288932
 H        -0.389528         0.201805         1.074370
 H        -0.617998        -0.237062        -0.698423
 H        -0.088427        -1.511731         0.401520
 H         2.546935         0.036143         2.018272
 H         3.532422        -1.119652         1.074995
 H         5.103646         2.142840         0.039480
 H         5.162220         0.608862         1.109866
 H         3.213059         1.303123        -1.987794
 H         1.594440        -0.598481        -2.206320
 H         2.309702        -1.718165        -1.218953
