19
Iteration:  3991charge 0 multiplicity 1
 C         0.037606        -0.579466         0.316221
 C         1.435359        -0.171410        -0.111876
 C         2.589483        -0.335128         1.065813
 C         3.126881         0.848877         0.219086
 C         4.599778         1.302244         0.149447
 O         4.790089         0.104723        -0.803183
 C         3.305447         0.264518        -1.124374
 C         2.148527        -0.669718        -1.397995
 O         1.745430         1.355265         0.142265
 H        -0.298579        -0.263392         1.270291
 H        -0.595797        -0.155563        -0.450365
 H        -0.024806        -1.678393         0.284275
 H         2.455576         0.169896         2.088126
 H         3.042758        -1.324738         1.355898
 H         4.799741         2.317346        -0.354160
 H         5.237980         1.289044         0.999710
 H         3.376667         1.012411        -1.943675
 H         1.605513        -0.443280        -2.399631
 H         2.243029        -1.721594        -1.497716
