19
Iteration:  1062
 C         0.096329        -0.492818         0.268567
 C         1.516712        -0.270146        -0.059121
 C         2.670297        -0.328364         0.872320
 C         3.024756         0.946358         0.156778
 C         4.609085         1.127321         0.232382
 O         4.777874         0.149695        -0.753958
 C         3.374818         0.381432        -1.182866
 C         2.138528        -0.696917        -1.328614
 O         1.627276         1.328508         0.194082
 H         0.084565        -0.269738         1.503404
 H        -0.741921         0.114827        -0.173256
 H        -0.078588        -1.539463         0.065692
 H         2.290861        -0.109696         1.821214
 H         3.261572        -1.202546         0.739669
 H         4.906280         2.195679         0.056444
 H         4.895901         0.823462         1.136736
 H         3.275702         0.965290        -2.190158
 H         1.397602        -0.391888        -2.048267
 H         2.385894        -1.756103        -1.293220
