19
Iteration:  2948charge 0 multiplicity 1
 C         0.060457        -0.544267         0.284433
 C         1.385125        -0.103852         0.043486
 C         2.622071        -0.369578         1.036076
 C         3.139381         0.764961         0.181942
 C         4.612299         1.246981         0.206688
 O         4.886020         0.153545        -0.776462
 C         3.332997         0.265480        -1.201510
 C         2.018690        -0.603004        -1.293603
 O         1.728596         1.314601        -0.003391
 H        -0.298176        -0.219558         1.287183
 H        -0.696336        -0.162592        -0.390018
 H        -0.036176        -1.574393         0.165529
 H         2.196740        -0.049598         2.062969
 H         3.170061        -1.315127         1.216616
 H         4.765500         2.256292        -0.376485
 H         5.224637         1.186121         1.073805
 H         3.464553         1.126138        -1.960416
 H         1.447213        -0.425092        -2.209615
 H         2.207193        -1.711874        -1.311327
