19
Iteration:  3967charge 0 multiplicity 1
 C         0.001764        -0.494647         0.307753
 C         1.408029        -0.163021         0.010925
 C         2.612405        -0.367363         1.018575
 C         3.073252         0.816451         0.109808
 C         4.573729         1.156624         0.216967
 O         4.834919         0.172916        -0.833530
 C         3.297428         0.396788        -1.278628
 C         2.260299        -0.708204        -1.223020
 O         1.686700         1.335532         0.092972
 H        -0.366682        -0.005295         1.239809
 H        -0.589714        -0.103872        -0.486743
 H        -0.096798        -1.571980         0.414616
 H         2.552922        -0.161321         2.173721
 H         3.217128        -1.196248         0.907219
 H         4.789245         2.282989         0.052201
 H         5.225039         0.860507         1.056824
 H         3.277863         1.165945        -2.038294
 H         1.701712        -0.763294        -2.131452
 H         2.544740        -1.797416        -1.119818
