19
Iteration:  4457charge 0 multiplicity 1
 C         0.039814        -0.470171         0.262514
 C         1.406701        -0.091556        -0.017460
 C         2.616942        -0.379299         0.955960
 C         3.103712         0.799758         0.165845
 C         4.582051         1.233367         0.258693
 O         4.804674         0.169469        -0.846351
 C         3.310046         0.296479        -1.199883
 C         2.151421        -0.751855        -1.257327
 O         1.759691         1.350564         0.105796
 H        -0.203019         0.050130         1.123129
 H        -0.736171        -0.308433        -0.494060
 H        -0.137492        -1.525407         0.584975
 H         2.249277        -0.094439         1.934532
 H         2.999802        -1.411190         1.205735
 H         4.910429         2.302928        -0.055687
 H         5.368596         0.963577         1.054903
 H         3.192045         0.944400        -2.060231
 H         1.552846        -0.701630        -2.262719
 H         2.573880        -1.694944        -1.033584
