19
Iteration:  3838
 C         0.058257        -0.574009         0.423735
 C         1.425981        -0.193410         0.012802
 C         2.578047        -0.322421         1.011827
 C         3.096430         0.869634         0.217093
 C         4.600764         1.180489         0.208406
 O         4.762418         0.108552        -0.797741
 C         3.398769         0.353618        -1.210739
 C         2.181279        -0.627226        -1.361770
 O         1.669743         1.356433        -0.030816
 H        -0.097936        -0.312334         1.497126
 H        -0.608360        -0.035400        -0.253335
 H        -0.206381        -1.625692         0.185599
 H         2.373563        -0.036302         2.140525
 H         3.240713        -1.188610         0.928745
 H         5.088076         2.078711        -0.200215
 H         5.013720         0.872139         1.098746
 H         3.536023         1.096836        -2.054131
 H         1.550849        -0.349342        -2.229939
 H         2.443200        -1.696443        -1.304195
