19
Iteration:  2549charge 0 multiplicity 1
 C         0.034792        -0.502260         0.240296
 C         1.494173        -0.281472         0.024423
 C         2.524064        -0.371163         1.116163
 C         3.088256         0.831572         0.201907
 C         4.646815         1.256447         0.079366
 O         4.863158         0.134037        -0.818108
 C         3.347725         0.304916        -1.185817
 C         2.081191        -0.611491        -1.363792
 O         1.751471         1.342779         0.174131
 H        -0.461301         0.232536         0.980491
 H        -0.611128        -0.388175        -0.619125
 H        -0.120137        -1.543509         0.552577
 H         2.042656        -0.249381         2.095477
 H         3.103360        -1.293361         1.158267
 H         4.897179         2.224069        -0.407930
 H         5.254574         1.124390         1.007686
 H         3.217134         1.268409        -1.809098
 H         1.438165        -0.374456        -2.211671
 H         2.136425        -1.668279        -1.617829
