19
Iteration:  4242charge 0 multiplicity 1
 C        -0.024940        -0.519584         0.238133
 C         1.530280        -0.220764         0.104968
 C         2.652119        -0.311758         1.021162
 C         3.098419         0.852963         0.147519
 C         4.594558         1.226007         0.129770
 O         4.722861         0.064734        -0.744774
 C         3.333135         0.381713        -1.222626
 C         2.234068        -0.623858        -1.306597
 O         1.688676         1.267567         0.097067
 H        -0.194694         0.184898         1.067802
 H        -0.732130        -0.129828        -0.584063
 H        -0.262201        -1.621354         0.442957
 H         2.421171         0.155747         1.940383
 H         3.257484        -1.239353         1.070510
 H         4.929569         2.190165        -0.326737
 H         5.135104         1.163937         1.025693
 H         3.416897         1.128244        -2.097124
 H         1.457236        -0.418674        -2.164882
 H         2.301590        -1.672385        -1.183892
