19
Iteration:  1415
 C         0.101856        -0.593285         0.383670
 C         1.418156        -0.124508        -0.021872
 C         2.554360        -0.341459         0.984981
 C         3.105898         0.849959         0.221011
 C         4.667090         1.201143         0.236798
 O         4.785378         0.139935        -0.777851
 C         3.382095         0.314971        -1.268400
 C         2.158057        -0.568732        -1.409886
 O         1.692741         1.284290         0.089855
 H        -0.106743        -0.541885         1.400791
 H        -0.797666         0.092894        -0.014006
 H        -0.160078        -1.591298        -0.063735
 H         2.088984        -0.119286         1.919518
 H         3.090000        -1.245786         1.180872
 H         4.807814         2.191837        -0.189886
 H         5.215296         1.007629         1.061942
 H         3.429255         0.966231        -2.219371
 H         1.473560        -0.292232        -2.214076
 H         1.991720        -1.630192        -1.198386
