19
Iteration:  4915charge 0 multiplicity 1
 C        -0.040185        -0.465318         0.329919
 C         1.454555        -0.224804        -0.038687
 C         2.623363        -0.283736         1.021051
 C         3.155466         0.907444         0.228451
 C         4.582325         1.184446         0.224914
 O         4.766207         0.123836        -0.807619
 C         3.331277         0.349562        -1.225846
 C         2.235915        -0.737571        -1.329607
 O         1.692937         1.296922         0.061507
 H        -0.209187        -0.210323         1.343290
 H        -0.583829         0.290416        -0.296381
 H        -0.392149        -1.580803         0.103391
 H         2.447371         0.003666         2.056740
 H         3.241174        -1.217226         0.787713
 H         4.815727         2.202230        -0.016384
 H         5.184699         0.684652         1.122874
 H         3.337001         1.129335        -2.090221
 H         1.504270        -0.549620        -2.251971
 H         2.522081        -1.763264        -1.172579
