19
Iteration:  3376
 C         0.028945        -0.436929         0.261214
 C         1.488661        -0.163372         0.052041
 C         2.647950        -0.391928         1.024170
 C         3.083974         0.935357         0.194016
 C         4.558778         1.207199         0.180188
 O         4.769197         0.115352        -0.817571
 C         3.374022         0.268006        -1.181565
 C         2.192633        -0.715360        -1.270070
 O         1.643771         1.325052         0.063633
 H        -0.448694        -0.008302         1.155217
 H        -0.545839        -0.101797        -0.675972
 H        -0.238347        -1.556252         0.321866
 H         2.546073        -0.046191         2.009472
 H         3.325796        -1.245209         0.681972
 H         4.945890         2.147226        -0.237147
 H         5.220298         1.039289         1.089283
 H         3.337743         1.022584        -1.928111
 H         1.660697        -0.512229        -2.218736
 H         2.412236        -1.739587        -1.080549
