19
Iteration:  4865charge 0 multiplicity 1
 C        -0.052370        -0.577679         0.226492
 C         1.399506        -0.129405        -0.005524
 C         2.607546        -0.384613         0.991812
 C         3.136332         0.818266         0.194033
 C         4.587200         1.319550         0.126367
 O         4.795022         0.065283        -0.774145
 C         3.375680         0.245917        -1.171177
 C         2.120442        -0.622751        -1.315524
 O         1.805054         1.396861         0.179739
 H        -0.290702        -0.494077         1.433282
 H        -0.768072        -0.074088        -0.466940
 H         0.050252        -1.602721        -0.056864
 H         2.191458        -0.038815         2.052704
 H         3.210087        -1.267832         1.123721
 H         4.617555         2.097559        -0.675671
 H         5.271589         1.450542         0.936898
 H         3.325220         1.089445        -1.856608
 H         1.755444        -0.368968        -2.267376
 H         2.273676        -1.735145        -1.093886
