19
Iteration:  2352
 C        -0.040844        -0.600583         0.267092
 C         1.448475        -0.121764        -0.037473
 C         2.510106        -0.394126         1.056062
 C         3.126750         0.807765         0.177048
 C         4.579497         1.224520         0.187797
 O         4.838829         0.153180        -0.873040
 C         3.357129         0.343598        -1.285595
 C         2.150708        -0.650559        -1.282733
 O         1.809643         1.384697         0.173856
 H        -0.280957         0.123867         1.225792
 H        -0.631465        -0.329759        -0.692337
 H         0.026576        -1.573802         0.771315
 H         2.275076        -0.070531         2.061767
 H         2.958335        -1.385362         1.048425
 H         4.891683         2.262465        -0.107300
 H         5.226410         0.849069         0.988590
 H         3.118760         1.110745        -1.968711
 H         1.332994        -0.701845        -2.084741
 H         2.457505        -1.710960        -0.876003
