19
Iteration:  1485charge 0 multiplicity 1
 C        -0.040548        -0.586565         0.244632
 C         1.403270        -0.157666         0.028707
 C         2.529771        -0.409762         1.108999
 C         3.154040         0.795598         0.229057
 C         4.564936         1.216628         0.141294
 O         4.913632         0.181606        -0.897786
 C         3.379703         0.327989        -1.183584
 C         2.092721        -0.591112        -1.372679
 O         1.793270         1.354457         0.199763
 H        -0.709895         0.026801         0.987598
 H        -0.635619        -0.437806        -0.603622
 H        -0.201500        -1.705225         0.435184
 H         2.132141        -0.287211         2.133304
 H         3.161278        -1.312385         1.183457
 H         4.581040         2.131453        -0.517857
 H         5.311072         1.178139         0.955743
 H         3.255515         1.219258        -1.924608
 H         1.671101        -0.436205        -2.351896
 H         2.453409        -1.610407        -1.310069
