19
Iteration:   356charge 0 multiplicity 1
 C         0.077715        -0.577184         0.310024
 C         1.490835        -0.231137        -0.013325
 C         2.681787        -0.330338         0.960798
 C         3.091337         0.847479         0.144228
 C         4.626798         1.154464         0.199101
 O         4.797403         0.123635        -0.814047
 C         3.276353         0.379982        -1.255235
 C         2.172893        -0.585742        -1.321664
 O         1.610062         1.360571         0.198357
 H        -0.168087        -0.052827         1.315834
 H        -0.632635        -0.062929        -0.313194
 H        -0.225659        -1.575175         0.325882
 H         2.378695         0.000768         1.972681
 H         3.249589        -1.289360         0.919611
 H         4.872045         2.112353        -0.156476
 H         5.138646         0.859171         1.213831
 H         3.265381         1.048499        -2.032248
 H         1.512201        -0.440565        -2.259925
 H         2.403574        -1.754105        -1.250151
