19
Iteration:  4552
 C         0.070546        -0.568892         0.346076
 C         1.416008        -0.085223         0.053889
 C         2.526121        -0.325386         1.008977
 C         3.085463         0.850469         0.122292
 C         4.633294         1.165363         0.233402
 O         4.849767         0.140772        -0.805635
 C         3.367893         0.308353        -1.231743
 C         2.084630        -0.703420        -1.337733
 O         1.720841         1.369143         0.050224
 H        -0.244076        -0.293966         1.426168
 H        -0.638322        -0.027582        -0.351680
 H        -0.271650        -1.643891         0.257112
 H         2.387598        -0.118292         2.098704
 H         3.143593        -1.225759         1.018269
 H         4.827099         2.195859        -0.034268
 H         5.077676         1.058237         1.254500
 H         3.409290         0.929514        -2.153441
 H         1.717135        -0.531738        -2.320611
 H         2.581285        -1.710886        -1.281501
