19
Iteration:  1956
 C         0.032042        -0.587511         0.237913
 C         1.457333        -0.173259         0.001690
 C         2.666186        -0.315492         0.939457
 C         3.112695         0.882821         0.227070
 C         4.590119         1.197888         0.159100
 O         4.755793         0.082881        -0.743421
 C         3.314841         0.347558        -1.193409
 C         2.125470        -0.649626        -1.322161
 O         1.730682         1.351321         0.168619
 H        -0.236824        -0.366859         1.198876
 H        -0.500910         0.076241        -0.459460
 H        -0.074222        -1.604272         0.003572
 H         2.430521         0.102218         1.922454
 H         3.288835        -1.164709         1.037429
 H         4.708339         2.167296        -0.330889
 H         5.216014         1.129183         1.038288
 H         3.396321         0.973556        -2.148080
 H         1.418025        -0.432291        -2.172660
 H         2.311875        -1.775312        -1.309360
