19
Iteration:  3984
 C         0.023944        -0.555990         0.327244
 C         1.452467        -0.173152        -0.001998
 C         2.582558        -0.329783         1.023613
 C         3.129295         0.881745         0.236720
 C         4.584165         1.260360         0.175467
 O         4.728759         0.156125        -0.843983
 C         3.384547         0.236439        -1.182060
 C         2.193460        -0.696686        -1.423177
 O         1.740414         1.343172         0.147108
 H        -0.397137        -0.085459         1.246683
 H        -0.733993        -0.159565        -0.426171
 H        -0.083452        -1.653919         0.247072
 H         2.292598         0.207087         1.882999
 H         3.022385        -1.409282         1.163649
 H         4.925105         2.126739        -0.312061
 H         5.046617         1.207852         1.207961
 H         3.421893         1.057794        -1.966056
 H         1.599429        -0.513170        -2.337777
 H         2.522504        -1.759606        -1.253306
