19
Iteration:  4463
 C        -0.024988        -0.486054         0.266555
 C         1.377625        -0.114582         0.015851
 C         2.603890        -0.428889         1.000487
 C         3.090335         0.810322         0.160122
 C         4.602927         1.224922         0.225009
 O         4.841595         0.175537        -0.885107
 C         3.351680         0.309495        -1.154763
 C         2.153954        -0.756384        -1.254679
 O         1.772492         1.401481         0.092892
 H        -0.401794        -0.007040         1.284823
 H        -0.608509        -0.235561        -0.644954
 H         0.083288        -1.571831         0.447237
 H         2.219384        -0.071197         2.000408
 H         3.110991        -1.387489         1.065434
 H         4.743823         2.124715        -0.333425
 H         5.085063         1.101530         1.201876
 H         3.314704         1.055206        -1.982454
 H         1.715873        -0.574456        -2.178794
 H         2.376653        -1.885246        -1.118423
