19
Iteration:  3677charge 0 multiplicity 1
 C        -0.073722        -0.526833         0.319516
 C         1.486725        -0.177228         0.052473
 C         2.723304        -0.249290         0.999622
 C         3.121528         0.894608         0.152647
 C         4.604881         1.236998         0.186646
 O         4.804305         0.034792        -0.751710
 C         3.357448         0.339777        -1.237226
 C         2.184668        -0.682867        -1.357916
 O         1.609250         1.304552         0.096233
 H        -0.306571        -0.287546         1.348396
 H        -0.811619        -0.134183        -0.421967
 H        -0.212803        -1.639082         0.196392
 H         2.373388         0.132826         1.908182
 H         3.145516        -1.235761         0.907425
 H         5.040517         2.144887        -0.311687
 H         5.156210         0.975137         1.144217
 H         3.362293         1.145997        -1.946936
 H         1.459688        -0.454828        -2.214661
 H         2.644000        -1.618943        -1.336272
