19
Iteration:  2458charge 0 multiplicity 1
 C         0.075416        -0.581091         0.292891
 C         1.427042        -0.191732         0.117734
 C         2.529789        -0.349258         1.078088
 C         3.187998         0.786132         0.185860
 C         4.605481         1.223314         0.146113
 O         4.824190         0.118019        -0.749892
 C         3.363072         0.326983        -1.283680
 C         2.076820        -0.572754        -1.349305
 O         1.729665         1.348624         0.065954
 H        -0.239314        -0.455264         1.337486
 H        -0.657634         0.036691        -0.312786
 H        -0.219774        -1.474932        -0.139349
 H         2.270151        -0.044588         2.143817
 H         3.102760        -1.367244         1.175016
 H         4.680534         2.168937        -0.524114
 H         5.321421         1.203688         0.930761
 H         3.227431         1.189521        -2.064407
 H         1.494353        -0.293203        -2.198657
 H         2.302534        -1.649165        -1.480165
