19
Iteration:  2750
 C         0.008384        -0.597069         0.302572
 C         1.375810        -0.168004        -0.014167
 C         2.516590        -0.375538         1.027500
 C         3.130084         0.851836         0.213086
 C         4.635618         1.211082         0.139429
 O         4.826706         0.165839        -0.821538
 C         3.319772         0.348932        -1.173772
 C         2.104681        -0.726985        -1.307306
 O         1.866068         1.441861         0.067117
 H        -0.458811        -0.268702         1.202205
 H        -0.748305        -0.429944        -0.498045
 H        -0.089623        -1.685928         0.548200
 H         2.288926        -0.106286         2.072406
 H         2.774520        -1.390993         0.988941
 H         4.750435         2.277904        -0.058690
 H         5.149812         1.019746         1.111444
 H         3.295306         1.120004        -2.044632
 H         1.629410        -0.576740        -2.271760
 H         2.567168        -1.723740        -1.059361
