19
Iteration:  1459charge 0 multiplicity 1
 C         0.072705        -0.518629         0.243344
 C         1.473210        -0.151214         0.018937
 C         2.656906        -0.389959         0.933454
 C         3.152972         0.861489         0.161343
 C         4.632121         1.203473         0.242943
 O         4.681831         0.166160        -0.787062
 C         3.352490         0.355287        -1.209727
 C         2.109825        -0.686820        -1.277788
 O         1.687286         1.317637         0.177091
 H        -0.372256        -0.053551         1.061108
 H        -0.619608        -0.160440        -0.650621
 H        -0.112624        -1.642816         0.320901
 H         2.465519        -0.208524         1.971214
 H         3.268976        -1.293365         0.831565
 H         4.836714         2.113725        -0.309844
 H         5.302342         0.994651         1.008504
 H         3.266667         1.047981        -2.100048
 H         1.554228        -0.403519        -2.197809
 H         2.425099        -1.733709        -1.345448
