19
Iteration:  4141charge 0 multiplicity 1
 C        -0.070943        -0.519571         0.194690
 C         1.465732        -0.185387         0.028690
 C         2.722526        -0.382536         1.020173
 C         3.139611         0.890340         0.197590
 C         4.601248         1.288693         0.128325
 O         4.748822         0.060767        -0.790929
 C         3.310997         0.412690        -1.180960
 C         2.168241        -0.741145        -1.228310
 O         1.709296         1.330659         0.136641
 H        -0.492943         0.039596         1.079960
 H        -0.496526        -0.034596        -0.721685
 H        -0.363185        -1.608076         0.228151
 H         2.599339        -0.136935         2.111354
 H         3.116418        -1.304529         0.767123
 H         4.757802         2.216759        -0.401322
 H         5.191045         1.154274         1.018640
 H         3.322107         1.158579        -2.047729
 H         1.660888        -0.707687        -2.203681
 H         2.651675        -1.716692        -1.106106
