19
Iteration:  3582charge 0 multiplicity 1
 C         0.033702        -0.426371         0.266098
 C         1.457833        -0.164933        -0.019381
 C         2.640808        -0.317329         1.061982
 C         3.090021         0.828766         0.273971
 C         4.592465         1.168962         0.184938
 O         4.738385         0.172993        -0.860433
 C         3.301037         0.351732        -1.180476
 C         2.249033        -0.761336        -1.331619
 O         1.702087         1.304256         0.068219
 H        -0.246958         0.095062         1.116983
 H        -0.511741        -0.385923        -0.656538
 H        -0.019672        -1.532460         0.362285
 H         2.274425         0.105955         1.937930
 H         3.317253        -1.257391         1.089364
 H         4.707394         2.166919        -0.053109
 H         5.164571         0.825900         1.124227
 H         3.190283         1.207365        -1.974888
 H         1.579849        -0.790794        -2.229138
 H         2.443796        -1.740134        -0.938859
