19
Iteration:  2452charge 0 multiplicity 1
 C         0.043965        -0.583809         0.269427
 C         1.432583        -0.167624         0.061629
 C         2.580688        -0.332618         0.984444
 C         3.179163         0.789941         0.221638
 C         4.618863         1.244285         0.101037
 O         4.789488         0.120494        -0.750097
 C         3.397889         0.329876        -1.218605
 C         2.055778        -0.616850        -1.281833
 O         1.724068         1.344542         0.103342
 H        -0.363031        -0.477904         1.352924
 H        -0.463784         0.243053        -0.261312
 H        -0.228872        -1.651296        -0.100104
 H         2.299053        -0.085278         1.984898
 H         3.059065        -1.259228         0.933651
 H         4.696710         2.201865        -0.366005
 H         5.327425         1.192251         0.983590
 H         3.425005         0.987279        -2.062233
 H         1.388861        -0.369940        -2.170297
 H         2.265604        -1.698327        -1.422355
