19
Iteration:    49charge 0 multiplicity 1
 C        -0.060267        -0.606493         0.281620
 C         1.409569        -0.184417         0.108550
 C         2.603991        -0.350532         1.018709
 C         3.165935         0.832209         0.203931
 C         4.624714         1.219326         0.170720
 O         4.785705         0.110987        -0.865251
 C         3.346362         0.417309        -1.251786
 C         2.189635        -0.602068        -1.251967
 O         1.744041         1.314403         0.118330
 H        -0.530205        -0.689817         1.285270
 H        -0.644654         0.150100        -0.449575
 H        -0.153448        -1.577305        -0.298830
 H         2.345831         0.062518         2.012107
 H         3.134550        -1.303349         1.009033
 H         4.741159         2.201153        -0.329504
 H         5.314560         1.098314         1.004194
 H         3.355490         1.206700        -2.150386
 H         1.427335        -0.451509        -2.091481
 H         2.503892        -1.725399        -1.220640
