19
Iteration:  2007
 C        -0.024848        -0.490756         0.287449
 C         1.376847        -0.195013        -0.018940
 C         2.593566        -0.404218         1.008216
 C         3.128940         0.794234         0.208705
 C         4.643997         1.234299         0.195335
 O         4.801354         0.215128        -0.829349
 C         3.326246         0.311686        -1.166830
 C         2.142616        -0.711294        -1.361516
 O         1.752441         1.358142         0.116316
 H        -0.120253         0.242787         1.188772
 H        -0.505738        -0.314014        -0.642503
 H         0.067561        -1.602836         0.695140
 H         2.344500        -0.142204         2.060635
 H         3.168765        -1.390064         0.849533
 H         5.061057         2.247023        -0.077840
 H         5.170389         1.004129         1.116811
 H         3.138910         1.087770        -1.862573
 H         1.554935        -0.534562        -2.250748
 H         2.335744        -1.752837        -1.327348
