19
Iteration:   384
 C        -0.022521        -0.471126         0.273358
 C         1.472796        -0.204089         0.090013
 C         2.784911        -0.380360         0.914307
 C         3.097846         0.847880         0.161888
 C         4.613948         1.294225         0.132818
 O         4.736489         0.093236        -0.747469
 C         3.281169         0.358598        -1.181118
 C         2.146116        -0.609833        -1.306595
 O         1.713381         1.217834         0.169155
 H        -0.517228        -0.260285         1.172720
 H        -0.524172         0.171939        -0.535209
 H        -0.346633        -1.533518        -0.021379
 H         2.539449        -0.260438         1.954778
 H         3.385507        -1.255738         0.701831
 H         4.957991         2.289213        -0.376511
 H         5.063255         1.112716         1.047434
 H         3.189334         1.173110        -2.044756
 H         1.550901        -0.359559        -2.125926
 H         2.340007        -1.601708        -1.354269
