19
Iteration:  4225charge 0 multiplicity 1
 C         0.052297        -0.531862         0.345141
 C         1.410888        -0.095533        -0.075873
 C         2.671202        -0.294140         0.992129
 C         3.067095         0.888803         0.149769
 C         4.643131         1.214085         0.209567
 O         4.804181         0.084084        -0.782197
 C         3.369169         0.261675        -1.191512
 C         2.119329        -0.688731        -1.326753
 O         1.620455         1.352317         0.121298
 H        -0.419982        -0.229609         1.287741
 H        -0.530468        -0.270926        -0.490867
 H         0.072811        -1.585992         0.259431
 H         2.349727        -0.158842         2.073612
 H         3.362627        -1.151357         0.957200
 H         4.904857         2.160103        -0.271463
 H         5.290288         1.065635         1.176294
 H         3.271370         0.955805        -1.976565
 H         1.630387        -0.604990        -2.232923
 H         2.597731        -1.728323        -1.264903
