19
Iteration:   715charge 0 multiplicity 1
 C         0.106855        -0.728789         0.290757
 C         1.417112        -0.089241        -0.021662
 C         2.551100        -0.267535         1.011529
 C         3.115472         0.801895         0.195800
 C         4.602778         1.177185         0.150424
 O         4.904636         0.106257        -0.825438
 C         3.355645         0.313385        -1.197916
 C         1.993013        -0.540095        -1.337344
 O         1.724782         1.388024         0.149368
 H         0.018414        -0.602758         1.468519
 H        -0.752714        -0.347396        -0.203679
 H         0.199575        -1.734988         0.108377
 H         2.167611         0.211095         1.916263
 H         2.926961        -1.305850         1.116899
 H         4.748807         2.216811        -0.117510
 H         5.204199         0.870453         1.052683
 H         3.328213         1.103316        -1.858962
 H         1.619164        -0.230196        -2.284233
 H         2.096130        -1.605154        -1.310361
