19
Iteration:   694charge 0 multiplicity 1
 C         0.034629        -0.624589         0.400772
 C         1.415317        -0.162293         0.036619
 C         2.593532        -0.371513         0.977078
 C         3.148314         0.861375         0.200438
 C         4.705212         1.179373         0.289011
 O         4.753937         0.157428        -0.856606
 C         3.336412         0.367751        -1.201144
 C         2.120103        -0.590787        -1.375771
 O         1.660774         1.363181         0.010793
 H        -0.270501        -0.353826         1.532097
 H        -0.663905        -0.210365        -0.320069
 H         0.050784        -1.715697         0.321210
 H         2.344187        -0.182477         2.023513
 H         3.138897        -1.333574         0.807209
 H         5.214544         2.083069        -0.119890
 H         5.324353         0.791399         1.216567
 H         3.311531         1.094158        -2.024912
 H         1.614425        -0.283787        -2.282098
 H         2.379394        -1.642255        -1.376427
