19
Iteration:   460charge 0 multiplicity 1
 C         0.017202        -0.500679         0.239568
 C         1.467878        -0.224660         0.138763
 C         2.643775        -0.368484         1.044373
 C         3.082719         0.847801         0.158624
 C         4.613442         1.065894         0.240612
 O         4.755615         0.249914        -0.979971
 C         3.274215         0.438467        -1.210344
 C         2.241641        -0.651144        -1.309353
 O         1.697268         1.268240         0.161481
 H        -0.325386         0.015748         1.067480
 H        -0.474731        -0.058811        -0.683535
 H        -0.353624        -1.573225         0.403679
 H         2.474959         0.134189         1.999301
 H         3.060562        -1.374361         1.120764
 H         5.173998         2.090197         0.135423
 H         4.933757         0.634426         1.109903
 H         3.118717         1.150453        -2.059809
 H         1.605696        -0.552012        -2.171759
 H         2.774563        -1.559928        -1.282947
