19
Iteration:  4356
 C        -0.031093        -0.554041         0.277554
 C         1.439516        -0.210057         0.059576
 C         2.666237        -0.316348         0.997191
 C         3.136257         0.909810         0.159923
 C         4.617485         1.242340         0.112079
 O         4.756662         0.046705        -0.718366
 C         3.340048         0.330779        -1.181628
 C         2.186212        -0.637023        -1.342209
 O         1.692927         1.361635         0.073226
 H        -0.477690        -0.402850         1.268744
 H        -0.752414        -0.063172        -0.332238
 H        -0.078166        -1.592638        -0.011295
 H         2.480807         0.079056         2.048558
 H         3.256059        -1.243677         0.994382
 H         4.768535         2.286216        -0.213414
 H         5.243968         1.055718         1.083035
 H         3.486438         0.935054        -2.047136
 H         1.492158        -0.561194        -2.127086
 H         2.456782        -1.728593        -1.158044
