19
Iteration:  2947
 C         0.064611        -0.547429         0.281363
 C         1.390624        -0.100124         0.043605
 C         2.619164        -0.367473         1.022530
 C         3.137143         0.770819         0.177888
 C         4.607144         1.249070         0.206571
 O         4.885155         0.150490        -0.783766
 C         3.335932         0.258426        -1.196289
 C         2.018456        -0.604666        -1.289904
 O         1.729424         1.316073         0.001448
 H        -0.317901        -0.198918         1.250282
 H        -0.685698        -0.127775        -0.398323
 H        -0.007825        -1.600976         0.176358
 H         2.208312        -0.063198         2.074653
 H         3.161049        -1.333404         1.251967
 H         4.727429         2.247893        -0.344493
 H         5.235878         1.202038         1.110430
 H         3.488367         1.108673        -1.920367
 H         1.394533        -0.418868        -2.158907
 H         2.217197        -1.702656        -1.304248
