19
Iteration:  1102
 C        -0.013374        -0.593596         0.237264
 C         1.429437        -0.163068         0.008515
 C         2.514188        -0.471774         1.028456
 C         3.135498         0.823198         0.259751
 C         4.573768         1.256532         0.130230
 O         4.873352         0.153879        -0.806533
 C         3.323211         0.365397        -1.195599
 C         2.137251        -0.583046        -1.293603
 O         1.777724         1.345611         0.120020
 H        -0.233164        -0.323175         1.259541
 H        -0.719192        -0.253319        -0.450620
 H         0.117475        -1.699785         0.207690
 H         2.369990        -0.057208         2.072645
 H         2.988854        -1.522858         1.109007
 H         4.564685         2.155012        -0.489510
 H         5.460391         1.222111         0.994273
 H         3.368658         1.164002        -1.927663
 H         1.541226        -0.114934        -2.197965
 H         2.254093        -1.682050        -1.517739
