19
Iteration:   611charge 0 multiplicity 1
 C        -0.040370        -0.584866         0.183443
 C         1.444064        -0.095028         0.085057
 C         2.566281        -0.455599         1.106513
 C         3.198582         0.671290         0.308329
 C         4.612604         1.293659         0.100815
 O         4.830175         0.222730        -0.937788
 C         3.334477         0.319150        -1.123973
 C         2.099782        -0.575449        -1.349032
 O         1.785256         1.313418         0.156934
 H        -0.481928        -0.343366         1.049151
 H        -0.670291        -0.133123        -0.639787
 H        -0.112746        -1.745292         0.069367
 H         2.325164        -0.042503         2.095025
 H         3.014089        -1.458840         1.185698
 H         4.704930         2.218475        -0.423730
 H         5.278570         1.191158         0.931609
 H         3.120040         1.244350        -1.672204
 H         1.490355        -0.179668        -2.254393
 H         2.235036        -1.724526        -1.405788
