19
Iteration:  4921charge 0 multiplicity 1
 C        -0.006374        -0.456509         0.330694
 C         1.391720        -0.239170        -0.005299
 C         2.605013        -0.334823         1.026924
 C         3.116141         0.868443         0.163117
 C         4.608483         1.142747         0.218227
 O         4.775923         0.134203        -0.789930
 C         3.350363         0.397897        -1.243530
 C         2.250946        -0.726617        -1.348143
 O         1.689543         1.334770         0.060064
 H        -0.174582        -0.145178         1.447068
 H        -0.657138         0.205220        -0.261003
 H        -0.273476        -1.473701         0.248980
 H         2.416178         0.054888         2.036454
 H         3.142996        -1.296022         0.952072
 H         4.896385         2.191855        -0.094241
 H         5.132638         0.881427         1.084648
 H         3.191446         1.288784        -1.832870
 H         1.787546        -0.796083        -2.304143
 H         2.619658        -1.757346        -1.135624
