19
Iteration:  3249
 C        -0.006450        -0.495575         0.249925
 C         1.419324        -0.101587         0.013101
 C         2.557492        -0.391467         1.030781
 C         3.134373         0.795652         0.229630
 C         4.652778         1.255208         0.129520
 O         4.800600         0.182881        -0.833052
 C         3.307339         0.283848        -1.152349
 C         2.158490        -0.727272        -1.269139
 O         1.771586         1.348817         0.073934
 H        -0.392987         0.046668         1.042644
 H        -0.733292        -0.431264        -0.539044
 H        -0.007148        -1.558309         0.531024
 H         2.322305        -0.100152         2.017336
 H         2.982600        -1.331437         1.142252
 H         4.691755         2.299584        -0.208434
 H         5.229867         1.014012         0.955415
 H         3.405536         0.977877        -2.012458
 H         1.732946        -0.502824        -2.208530
 H         2.263632        -1.860832        -1.180770
