19
Iteration:  4591charge 0 multiplicity 1
 C        -0.044404        -0.515894         0.331030
 C         1.445940        -0.245739         0.027256
 C         2.576102        -0.391866         1.069647
 C         3.127776         0.848039         0.222297
 C         4.626255         1.202514         0.195832
 O         4.822389         0.128082        -0.818484
 C         3.313693         0.333423        -1.159016
 C         2.154886        -0.603135        -1.386033
 O         1.747668         1.362416         0.030180
 H        -0.444469         0.216204         1.040445
 H        -0.559378        -0.488184        -0.603156
 H        -0.032077        -1.520087         0.633613
 H         2.442257         0.036791         2.122955
 H         3.060509        -1.385669         1.102594
 H         4.989906         2.054169        -0.520854
 H         5.283233         1.289904         1.035541
 H         3.332326         1.097585        -1.923735
 H         1.494591        -0.467244        -2.290140
 H         2.237341        -1.727863        -1.423229
