19
Iteration:  4734charge 0 multiplicity 1
 C         0.018983        -0.479572         0.241709
 C         1.440768        -0.215291        -0.000273
 C         2.698510        -0.352286         0.979432
 C         3.079723         0.856917         0.194483
 C         4.636813         1.253409         0.118622
 O         4.791259         0.096095        -0.750102
 C         3.359796         0.317396        -1.169532
 C         2.097742        -0.654388        -1.270883
 O         1.659452         1.292188         0.142907
 H        -0.417426        -0.280536         1.301734
 H        -0.380458         0.200935        -0.503987
 H        -0.006155        -1.464199        -0.152727
 H         2.406660         0.213180         1.966530
 H         3.369634        -1.171882         1.001510
 H         4.996891         2.220420        -0.286347
 H         5.044381         1.154614         1.067063
 H         3.436431         0.935837        -2.033251
 H         1.511335        -0.463254        -2.150571
 H         2.163408        -1.794828        -1.438665
