19
Iteration:  4188
 C        -0.003533        -0.613148         0.383075
 C         1.452408        -0.152493         0.052306
 C         2.530052        -0.280773         1.050297
 C         3.074275         0.760158         0.149719
 C         4.574694         1.218562         0.271933
 O         4.833291         0.120704        -0.822173
 C         3.346903         0.297981        -1.258238
 C         2.162610        -0.581968        -1.369544
 O         1.798125         1.362426         0.004603
 H        -0.271131        -0.524381         1.442098
 H        -0.849320        -0.198692        -0.251051
 H         0.112070        -1.745983         0.223508
 H         2.127254         0.219620         1.883043
 H         3.263319        -1.113987         1.144125
 H         4.741984         2.192320        -0.313809
 H         5.178613         1.066186         1.153347
 H         3.510485         1.142727        -1.975841
 H         1.357092        -0.447661        -2.206909
 H         2.408679        -1.617537        -1.204160
