19
Iteration:  1307charge 0 multiplicity 1
 C        -0.016675        -0.539495         0.314772
 C         1.401864        -0.144309        -0.006457
 C         2.525350        -0.379994         1.013664
 C         3.144828         0.696688         0.221826
 C         4.644833         1.186693         0.212850
 O         4.875722         0.259294        -0.901572
 C         3.373547         0.293764        -1.211933
 C         2.115410        -0.654434        -1.350023
 O         1.754693         1.382835         0.172639
 H        -0.471787        -0.107267         1.152518
 H        -0.515010        -0.376516        -0.699021
 H        -0.003924        -1.727103         0.536150
 H         2.028944        -0.075633         1.913055
 H         2.867047        -1.397280         1.147137
 H         4.472756         2.394502        -0.137839
 H         5.372082         1.161741         0.981946
 H         3.303823         1.219791        -1.939760
 H         1.520094        -0.707300        -2.237857
 H         2.404297        -1.679210        -1.217872
