19
Iteration:  3524
 C         0.018100        -0.556624         0.264393
 C         1.502683        -0.162359         0.056970
 C         2.620581        -0.325401         1.074130
 C         3.136410         0.770236         0.179436
 C         4.570537         1.356159         0.138929
 O         4.787580         0.115674        -0.762857
 C         3.390090         0.176246        -1.163523
 C         2.089299        -0.590037        -1.352189
 O         1.750203         1.317547         0.020627
 H        -0.538073        -0.388440         1.241782
 H        -0.634380        -0.008178        -0.450129
 H         0.007520        -1.621026         0.147681
 H         2.436534         0.136292         2.139607
 H         3.139630        -1.288948         1.241885
 H         4.775545         2.369483        -0.126554
 H         5.007197         1.127936         1.101133
 H         3.473964         0.964001        -1.987754
 H         1.344859        -0.109217        -2.130213
 H         1.785001        -1.654202        -1.508988
