19
Iteration:  3783
 C        -0.000796        -0.487467         0.184227
 C         1.451869        -0.242633         0.102481
 C         2.649799        -0.355680         1.043331
 C         3.109640         0.784625         0.157391
 C         4.514201         1.280760         0.157550
 O         4.817568         0.102965        -0.830194
 C         3.323509         0.312694        -1.246638
 C         2.183258        -0.666221        -1.233611
 O         1.737341         1.353975         0.149784
 H        -0.508580         0.075793         1.035786
 H        -0.429593        -0.119775        -0.768134
 H        -0.244972        -1.540709         0.416679
 H         2.606393         0.088925         2.143745
 H         3.324562        -1.183062         1.148008
 H         4.800140         2.212884        -0.376767
 H         5.004932         1.197815         1.046055
 H         3.353013         1.055970        -2.086168
 H         1.546374        -0.382061        -2.050301
 H         2.220240        -1.752438        -1.423583
