19
Iteration:  1254
 C         0.001816        -0.547564         0.279383
 C         1.471431        -0.220835         0.017987
 C         2.724566        -0.330302         1.014149
 C         3.069915         0.875265         0.140306
 C         4.611269         1.174839         0.145070
 O         4.820456         0.029077        -0.722687
 C         3.279984         0.466641        -1.266851
 C         2.170416        -0.595209        -1.339710
 O         1.606511         1.309496         0.154832
 H        -0.065736        -0.161587         1.230394
 H        -0.584052         0.123641        -0.356436
 H        -0.242998        -1.714306         0.131899
 H         2.559465        -0.035066         2.073999
 H         3.319750        -1.293059         0.871699
 H         4.846689         2.140458        -0.105070
 H         5.048897         0.993877         1.134741
 H         3.548120         1.198568        -2.024068
 H         1.454271        -0.516080        -2.182383
 H         2.652208        -1.548788        -1.397948
