19
Iteration:  4740
 C        -0.001435        -0.501569         0.222803
 C         1.456110        -0.233095        -0.016804
 C         2.634767        -0.298077         1.033478
 C         3.102710         0.861471         0.185926
 C         4.650294         1.276411         0.125582
 O         4.809140         0.071121        -0.777606
 C         3.340952         0.279763        -1.200515
 C         2.139189        -0.619760        -1.281840
 O         1.672877         1.289397         0.167476
 H        -0.218400        -0.250455         1.242132
 H        -0.496125         0.132797        -0.547092
 H        -0.318467        -1.605235         0.026704
 H         2.409310        -0.149656         2.057747
 H         3.278029        -1.238844         1.016847
 H         4.899886         2.227004        -0.383185
 H         5.130917         1.355087         1.199047
 H         3.374972         0.987826        -2.084866
 H         1.496666        -0.257984        -2.143706
 H         2.187125        -1.673756        -1.268727
