19
Iteration:  1964
 C         0.044077        -0.548777         0.242765
 C         1.490922        -0.156844         0.046223
 C         2.565045        -0.340751         1.038227
 C         3.123164         0.859401         0.143996
 C         4.598561         1.219878         0.160891
 O         4.761108         0.108891        -0.768463
 C         3.335950         0.278182        -1.215731
 C         2.143239        -0.621896        -1.338525
 O         1.744616         1.331466         0.168807
 H        -0.296895        -0.451923         1.372038
 H        -0.660601        -0.164468        -0.498126
 H        -0.076639        -1.733318         0.026941
 H         2.219763         0.067275         2.013841
 H         3.131286        -1.318892         0.919544
 H         4.841616         2.269694        -0.386351
 H         5.200512         1.288769         1.023401
 H         3.433666         1.142651        -1.945719
 H         1.529886        -0.251623        -2.183092
 H         2.302764        -1.683683        -1.503657
