19
Iteration:   734
 C        -0.003517        -0.723210         0.287156
 C         1.453850        -0.174964         0.074072
 C         2.568917        -0.357775         1.043338
 C         3.100376         0.852782         0.173110
 C         4.618421         1.272389         0.180546
 O         4.731914         0.052599        -0.822295
 C         3.395030         0.339096        -1.236836
 C         2.137903        -0.575758        -1.367338
 O         1.818187         1.455443         0.161052
 H        -0.447019        -0.653345         1.294754
 H        -0.692564        -0.287082        -0.388396
 H         0.039735        -1.741494        -0.045569
 H         2.322500         0.029838         2.048649
 H         3.147852        -1.280750         1.035305
 H         4.743364         2.144937        -0.407669
 H         5.097258         1.295287         1.059414
 H         3.395173         1.108901        -2.010258
 H         1.382238        -0.233244        -2.116328
 H         2.289614        -1.618101        -1.561501
