19
Iteration:   117charge 0 multiplicity 1
 C        -0.088274        -0.563573         0.357673
 C         1.359380        -0.088326         0.023206
 C         2.512789        -0.450917         0.993602
 C         3.166582         0.784228         0.254269
 C         4.565165         1.279591         0.115404
 O         4.906429         0.213880        -0.836039
 C         3.402941         0.310489        -1.178415
 C         2.122919        -0.646465        -1.429172
 O         1.823685         1.301337         0.138741
 H        -0.550791        -0.026544         1.377424
 H        -0.797832        -0.604426        -0.475631
 H         0.061763        -1.592907         0.687214
 H         2.190172        -0.162958         2.024619
 H         3.141844        -1.413339         0.971463
 H         4.493805         2.295107        -0.233322
 H         5.332727         1.189712         0.986080
 H         3.380850         1.208468        -1.963774
 H         1.641099        -0.421339        -2.365859
 H         2.261608        -1.730946        -1.319214
