19
Iteration:   759
 C         0.059400        -0.549598         0.227729
 C         1.486612        -0.163784         0.021249
 C         2.723777        -0.376657         0.940399
 C         3.103191         0.882034         0.213472
 C         4.678957         1.230468         0.135865
 O         4.743836         0.085541        -0.776666
 C         3.274531         0.338118        -1.161471
 C         2.126875        -0.581854        -1.313346
 O         1.609080         1.279077         0.180570
 H        -0.357472        -0.092710         1.195042
 H        -0.447196        -0.015637        -0.568134
 H        -0.200006        -1.541186         0.112921
 H         2.493755        -0.112625         1.976883
 H         3.471408        -1.185061         0.740759
 H         4.827537         2.130756        -0.400382
 H         5.134671         1.270257         1.163344
 H         3.260386         1.016721        -1.945621
 H         1.505516        -0.595553        -2.185739
 H         2.546494        -1.575129        -1.140526
