19
Iteration:  3226charge 0 multiplicity 1
 C        -0.047265        -0.472904         0.391905
 C         1.388950        -0.168144        -0.059241
 C         2.485775        -0.334838         1.030851
 C         3.069917         0.775203         0.228830
 C         4.587194         1.239310         0.182865
 O         4.889822         0.131992        -0.885551
 C         3.378537         0.339741        -1.212660
 C         2.280390        -0.742676        -1.344404
 O         1.753571         1.367883         0.122227
 H        -0.380542         0.022100         1.231840
 H        -0.715685        -0.229971        -0.438427
 H        -0.222205        -1.554469         0.385733
 H         2.323723        -0.081418         2.038067
 H         2.909845        -1.330438         1.161955
 H         4.633118         2.228944        -0.363120
 H         5.179570         1.127772         1.002888
 H         3.403480         1.254168        -1.939685
 H         1.711203        -0.770889        -2.296266
 H         2.473889        -1.808554        -1.018023
