19
Iteration:  1528
 C         0.052206        -0.449136         0.230759
 C         1.473286        -0.144046         0.029880
 C         2.615137        -0.357919         0.992537
 C         3.073296         0.783891         0.262218
 C         4.602947         1.121289         0.237588
 O         4.800257         0.202698        -0.892404
 C         3.373615         0.360423        -1.269547
 C         2.201617        -0.690671        -1.324779
 O         1.638762         1.318395         0.187973
 H        -0.496429         0.042608         1.188238
 H        -0.590457        -0.127897        -0.613586
 H         0.004428        -1.666682         0.410724
 H         2.469276        -0.089809         2.050254
 H         3.245974        -1.242048         0.925006
 H         4.659733         2.216109        -0.118197
 H         5.173790         0.744185         1.034309
 H         3.142700         1.250364        -2.059764
 H         1.468433        -0.752147        -2.152573
 H         2.520650        -1.712895        -1.125396
