19
Iteration:  2747charge 0 multiplicity 1
 C         0.002786        -0.598263         0.321310
 C         1.383926        -0.156132        -0.002034
 C         2.493023        -0.377490         1.042162
 C         3.142237         0.826739         0.189026
 C         4.626202         1.207058         0.156150
 O         4.811062         0.165898        -0.833511
 C         3.317036         0.349801        -1.180031
 C         2.135598        -0.735466        -1.316514
 O         1.847967         1.449704         0.068358
 H        -0.390708        -0.178790         1.204948
 H        -0.636588        -0.471287        -0.523684
 H        -0.137771        -1.668236         0.538900
 H         2.243683         0.002090         2.030178
 H         2.919292        -1.468693         0.988121
 H         4.746749         2.275839        -0.099259
 H         5.219646         1.006959         1.171882
 H         3.367413         1.192508        -1.983709
 H         1.697034        -0.550663        -2.287840
 H         2.548143        -1.696138        -1.149309
