19
Iteration:  3199charge 0 multiplicity 1
 C         0.038049        -0.454917         0.292533
 C         1.476617        -0.188491        -0.015009
 C         2.665756        -0.296888         1.003138
 C         3.065395         0.818092         0.152817
 C         4.595266         1.227623         0.235644
 O         4.746964         0.192029        -0.801037
 C         3.360767         0.232098        -1.200724
 C         2.160024        -0.665738        -1.259275
 O         1.716522         1.255517         0.027558
 H        -0.382555        -0.014114         1.307521
 H        -0.509002         0.181808        -0.485038
 H        -0.346422        -1.490128         0.157185
 H         2.544749        -0.094514         2.120181
 H         3.220207        -1.310240         1.036224
 H         5.037941         2.166374        -0.216070
 H         5.113738         0.932839         1.277485
 H         3.266159         1.041727        -1.892395
 H         1.455683        -0.419377        -2.094871
 H         2.169436        -1.736495        -1.176560
