19
Iteration:  4081
 C        -0.081956        -0.534468         0.378812
 C         1.411711        -0.135745        -0.010668
 C         2.603413        -0.321184         1.068632
 C         3.117993         0.807247         0.257923
 C         4.622164         1.166244         0.192734
 O         4.824228         0.218694        -0.886997
 C         3.357917         0.387652        -1.130996
 C         2.210668        -0.699317        -1.327050
 O         1.725870         1.262670        -0.025220
 H        -0.506871        -0.040188         1.233367
 H        -0.812685        -0.142013        -0.352405
 H        -0.258533        -1.588813         0.281330
 H         2.406158        -0.144716         2.097723
 H         3.136734        -1.388188         0.989543
 H         4.826753         2.223808        -0.145614
 H         5.354887         1.012025         1.006099
 H         3.359256         1.151521        -1.949340
 H         1.656599        -0.591715        -2.366424
 H         2.462316        -1.754548        -1.183065
