19
Iteration:  3977charge 0 multiplicity 1
 C        -0.002379        -0.522950         0.304598
 C         1.454313        -0.164423         0.085070
 C         2.579947        -0.331320         0.994043
 C         3.091042         0.845494         0.165017
 C         4.575975         1.218087         0.201741
 O         4.757468         0.167376        -0.835722
 C         3.390535         0.310043        -1.245558
 C         2.238082        -0.708017        -1.366378
 O         1.730786         1.336629         0.134715
 H        -0.275407        -0.110626         1.320153
 H        -0.661843        -0.185239        -0.479182
 H        -0.120132        -1.609006         0.381794
 H         2.093452        -0.025852         1.984079
 H         3.116167        -1.210089         1.013591
 H         4.895101         2.185538        -0.293695
 H         5.085673         0.931908         1.162302
 H         3.208385         1.060827        -1.990144
 H         1.680435        -0.595646        -2.249180
 H         2.564381        -1.783841        -1.125272
