19
Iteration:    52charge 0 multiplicity 1
 C        -0.055831        -0.584733         0.265480
 C         1.440812        -0.187456         0.123016
 C         2.615143        -0.342917         1.023884
 C         3.161935         0.832515         0.192609
 C         4.648397         1.230763         0.185617
 O         4.756789         0.119088        -0.863900
 C         3.343677         0.416040        -1.245298
 C         2.183624        -0.643095        -1.290372
 O         1.713770         1.310801         0.118701
 H        -0.590213        -0.644505         1.342180
 H        -0.576367         0.088114        -0.365313
 H        -0.176593        -1.506286        -0.265901
 H         2.427221         0.127649         2.020834
 H         3.178792        -1.341989         0.945932
 H         4.791271         2.208550        -0.270285
 H         5.359716         1.011324         1.099017
 H         3.347492         1.134887        -2.105645
 H         1.507583        -0.458768        -2.089498
 H         2.476138        -1.668721        -1.272454
