19
Iteration:  3149
 C         0.042427        -0.570235         0.282104
 C         1.428713        -0.067426        -0.047896
 C         2.553425        -0.358656         0.998699
 C         3.122136         0.888293         0.233643
 C         4.588068         1.296145         0.117550
 O         4.731888         0.026304        -0.767590
 C         3.402602         0.229306        -1.162470
 C         2.168012        -0.655827        -1.322398
 O         1.760560         1.384139         0.124559
 H        -0.225189        -0.559075         1.293503
 H        -0.831711        -0.137437        -0.187601
 H         0.186183        -1.650364         0.190714
 H         2.123610        -0.020963         1.906852
 H         3.021129        -1.359215         1.132098
 H         4.816154         2.181148        -0.518742
 H         5.346333         1.326179         0.867068
 H         3.356351         1.120262        -1.920896
 H         1.515809        -0.402535        -2.226956
 H         2.474695        -1.721463        -1.263539
