19
Iteration:  4781
 C         0.032490        -0.566724         0.268654
 C         1.458572        -0.086110        -0.033911
 C         2.523020        -0.366450         0.995408
 C         3.164067         0.812391         0.204863
 C         4.577143         1.219507         0.228363
 O         4.813468         0.167572        -0.854787
 C         3.330807         0.296331        -1.170883
 C         2.105363        -0.670973        -1.288012
 O         1.778149         1.349978         0.113561
 H        -0.212460         0.150958         0.981544
 H        -0.751393        -0.507784        -0.519866
 H         0.072910        -1.511876         0.782836
 H         2.112035        -0.132324         1.955132
 H         3.076697        -1.341226         0.826847
 H         4.850990         2.238926        -0.193356
 H         5.266114         1.017779         1.072270
 H         3.186087         1.118301        -1.892831
 H         1.619776        -0.732745        -2.287630
 H         2.345939        -1.750467        -1.147910
