19
Iteration:  4077charge 0 multiplicity 1
 C        -0.064045        -0.526508         0.385007
 C         1.430761        -0.132439        -0.028735
 C         2.609500        -0.336450         1.069266
 C         3.141255         0.817765         0.247171
 C         4.600875         1.163946         0.212533
 O         4.785307         0.200431        -0.880468
 C         3.381370         0.378797        -1.164984
 C         2.250463        -0.701242        -1.334538
 O         1.698632         1.276049        -0.010012
 H        -0.463167        -0.003028         1.260657
 H        -0.815280        -0.109939        -0.337944
 H        -0.238430        -1.626792         0.252860
 H         2.396046        -0.138623         2.161429
 H         3.069295        -1.301667         0.952078
 H         4.937783         2.214692        -0.232924
 H         5.183104         1.006994         1.121441
 H         3.227567         1.151542        -1.964147
 H         1.474780        -0.588367        -2.223487
 H         2.612919        -1.711963        -1.203436
