19
Iteration:  2676charge 0 multiplicity 1
 C         0.047671        -0.518364         0.261163
 C         1.410326        -0.073326         0.044765
 C         2.623613        -0.381550         0.983758
 C         3.070936         0.804460         0.162309
 C         4.535816         1.257081         0.114866
 O         4.834968         0.091322        -0.761733
 C         3.347496         0.238898        -1.223652
 C         2.155199        -0.622111        -1.331222
 O         1.772863         1.368441         0.185890
 H        -0.454956        -0.272444         1.279234
 H        -0.644921        -0.359290        -0.632832
 H        -0.051429        -1.642141         0.248776
 H         2.257791        -0.010617         2.012509
 H         3.369681        -1.233372         0.931348
 H         4.935420         2.143553        -0.465506
 H         4.861003         1.207524         1.100713
 H         3.223666         1.046168        -1.914062
 H         1.502473        -0.479167        -2.217539
 H         2.315425        -1.733167        -1.097042
