19
Iteration:   449
 C        -0.027856        -0.508180         0.322548
 C         1.463928        -0.226315         0.063755
 C         2.550844        -0.399725         1.093583
 C         3.146028         0.819355         0.239605
 C         4.637038         1.070179         0.238053
 O         4.799621         0.277524        -1.000306
 C         3.297686         0.447076        -1.263447
 C         2.217475        -0.661671        -1.267438
 O         1.712685         1.312257         0.089195
 H        -0.505099        -0.098684         1.121198
 H        -0.528497        -0.082121        -0.614511
 H        -0.161269        -1.662427         0.178544
 H         2.251861        -0.230401         2.128652
 H         3.190233        -1.283076         1.004122
 H         4.905742         2.203091         0.003582
 H         5.182173         0.653279         0.994430
 H         3.219098         1.397536        -1.873106
 H         1.560366        -0.688517        -2.120290
 H         2.594718        -1.646804        -1.196472
