19
Iteration:  4634charge 0 multiplicity 1
 C        -0.017989        -0.491164         0.178569
 C         1.460450        -0.163624         0.076635
 C         2.716861        -0.376982         1.025567
 C         3.118292         0.865031         0.121649
 C         4.619482         1.238812         0.168079
 O         4.758350         0.098199        -0.783752
 C         3.317830         0.285445        -1.237559
 C         2.134534        -0.746897        -1.308649
 O         1.708007         1.418860         0.206251
 H        -0.540579         0.166853         0.932851
 H        -0.554023        -0.418647        -0.769618
 H         0.025461        -1.551961         0.579143
 H         2.347506         0.066447         2.010541
 H         3.267023        -1.343307         1.008385
 H         4.870782         2.321654        -0.185720
 H         5.073991         0.907196         1.090793
 H         3.291455         1.098804        -1.954431
 H         1.459204        -0.530019        -2.196915
 H         2.431466        -1.833779        -1.389711
