19
Iteration:  2140charge 0 multiplicity 1
 C         0.086046        -0.437961         0.327813
 C         1.474682        -0.207509         0.037141
 C         2.688874        -0.318034         0.954129
 C         3.117090         0.866501         0.136931
 C         4.629321         1.134230         0.264158
 O         4.699530         0.131887        -0.763947
 C         3.336948         0.403871        -1.257098
 C         2.152185        -0.659285        -1.330060
 O         1.658835         1.233413         0.055332
 H        -0.199859        -0.117623         1.302227
 H        -0.613005         0.095508        -0.371779
 H        -0.286407        -1.538859         0.320356
 H         2.430734        -0.060626         2.001572
 H         3.204229        -1.303827         0.857954
 H         4.810230         2.251577        -0.003553
 H         5.190068         0.837838         1.073366
 H         3.376549         1.234773        -1.849394
 H         1.413576        -0.462822        -2.089166
 H         2.443521        -1.683703        -1.330609
