19
Iteration:  3407charge 0 multiplicity 1
 C        -0.030883        -0.513726         0.215122
 C         1.491429        -0.206437        -0.000272
 C         2.521145        -0.358271         1.058105
 C         3.133556         0.846572         0.212263
 C         4.548718         1.190962         0.114405
 O         4.805221         0.149475        -0.831276
 C         3.364434         0.279035        -1.205595
 C         2.190360        -0.656035        -1.303140
 O         1.770021         1.366466         0.175878
 H        -0.541052         0.106893         0.985750
 H        -0.641884        -0.203743        -0.671773
 H        -0.040098        -1.561907         0.551558
 H         2.318494         0.082494         2.006312
 H         3.150658        -1.241943         1.317621
 H         4.642527         2.108089        -0.500831
 H         5.367453         1.318883         1.010609
 H         3.259985         1.110610        -1.932629
 H         1.508301        -0.845008        -2.183343
 H         2.476983        -1.633505        -1.015050
