19
Iteration:  2192charge 0 multiplicity 1
 C         0.027728        -0.553641         0.197514
 C         1.394798        -0.041496        -0.014626
 C         2.546108        -0.472789         1.011567
 C         3.192863         0.772530         0.198970
 C         4.649992         1.285347         0.134778
 O         4.801999         0.130010        -0.871150
 C         3.277979         0.268194        -1.147069
 C         2.094439        -0.588031        -1.231418
 O         1.804848         1.361141         0.152301
 H        -0.557613        -0.203154         1.039920
 H        -0.525508        -0.521846        -0.683747
 H         0.039922        -1.678147         0.531180
 H         2.199198        -0.136672         2.035178
 H         3.146187        -1.438106         1.106768
 H         4.729480         2.342686        -0.139071
 H         5.337251         1.180542         1.025619
 H         3.305549         1.176167        -1.855894
 H         1.590945        -0.536478        -2.165438
 H         2.149570        -1.599422        -1.020099
