19
Iteration:  3586
 C         0.056919        -0.449346         0.273152
 C         1.448138        -0.194200        -0.014091
 C         2.664714        -0.294527         1.077563
 C         3.113169         0.798544         0.255599
 C         4.572225         1.154674         0.216585
 O         4.760805         0.188600        -0.872119
 C         3.344837         0.316206        -1.213590
 C         2.200541        -0.733548        -1.348160
 O         1.679667         1.320196         0.070979
 H        -0.362613         0.224595         1.106184
 H        -0.515056        -0.237510        -0.673449
 H        -0.040585        -1.543153         0.397799
 H         2.073044         0.104703         1.957259
 H         3.156541        -1.216311         1.127807
 H         4.787708         2.279430        -0.072297
 H         5.120677         0.903202         1.099344
 H         3.178063         1.165733        -1.833501
 H         1.482889        -0.790822        -2.104848
 H         2.593779        -1.722706        -0.983597
