19
Iteration:   441charge 0 multiplicity 1
 C        -0.035979        -0.536206         0.293127
 C         1.402827        -0.170204        -0.014389
 C         2.557940        -0.411951         1.088627
 C         3.142485         0.729223         0.302765
 C         4.684043         1.133888         0.206750
 O         4.799971         0.292289        -1.002554
 C         3.364767         0.400531        -1.207142
 C         2.167287        -0.677378        -1.275344
 O         1.720298         1.347977         0.072189
 H        -0.326922        -0.230626         1.390498
 H        -0.725321        -0.098243        -0.494365
 H        -0.025903        -1.607794         0.253406
 H         2.185728        -0.247572         2.085859
 H         3.210874        -1.299093         1.017586
 H         4.818399         2.245863         0.037913
 H         5.455259         0.777227         0.947853
 H         3.035741         1.396898        -1.787435
 H         1.512404        -0.647665        -2.113685
 H         2.463817        -1.660809        -1.021355
