19
Iteration:  3836
 C         0.051046        -0.572876         0.413286
 C         1.437360        -0.185735         0.019037
 C         2.571308        -0.320341         0.992579
 C         3.098534         0.886439         0.223148
 C         4.599719         1.171152         0.210970
 O         4.775119         0.107055        -0.815139
 C         3.407196         0.346676        -1.181924
 C         2.162652        -0.629665        -1.359225
 O         1.664753         1.367742        -0.031562
 H        -0.049996        -0.381570         1.505776
 H        -0.608171        -0.077157        -0.227193
 H        -0.212337        -1.603686         0.267961
 H         2.352880        -0.118331         2.123225
 H         3.176358        -1.192975         0.935549
 H         4.996678         2.101893        -0.230891
 H         5.044227         0.913045         1.128374
 H         3.560019         1.075386        -2.008805
 H         1.589866        -0.433534        -2.221295
 H         2.501079        -1.742203        -1.372598
