19
Iteration:  1896charge 0 multiplicity 1
 C         0.032053        -0.539052         0.275359
 C         1.385145        -0.183535        -0.048100
 C         2.509297        -0.391904         1.066688
 C         3.151107         0.806517         0.293383
 C         4.586749         1.260257         0.203605
 O         4.922708         0.191885        -0.907050
 C         3.329335         0.305338        -1.122554
 C         2.091506        -0.667807        -1.361103
 O         1.796294         1.336327         0.058973
 H        -0.180619        -0.187310         1.399246
 H        -0.892829        -0.212787        -0.243599
 H        -0.301895        -1.641714         0.261698
 H         2.176899         0.029344         2.057081
 H         3.101032        -1.373747         1.124814
 H         4.808227         2.252096        -0.302782
 H         5.133380         1.124492         1.200183
 H         3.225170         1.021254        -1.933479
 H         1.421561        -0.354723        -2.117359
 H         2.320059        -1.702741        -1.397655
