19
Iteration:  2162charge 0 multiplicity 1
 C        -0.002315        -0.522563         0.352183
 C         1.398233        -0.217254        -0.016007
 C         2.529855        -0.409173         1.067685
 C         3.109215         0.847533         0.176792
 C         4.589936         1.224701         0.200026
 O         4.846650         0.120917        -0.883650
 C         3.362430         0.304588        -1.203956
 C         2.180472        -0.616894        -1.394381
 O         1.771391         1.384857         0.139246
 H        -0.397154        -0.102847         1.243356
 H        -0.774692        -0.271910        -0.460214
 H        -0.175222        -1.659825         0.462812
 H         2.156199        -0.051323         2.061234
 H         3.274038        -1.222491         1.162231
 H         4.879864         2.325840        -0.139789
 H         5.138157         0.948844         1.020503
 H         3.364142         1.107273        -1.863722
 H         1.597336        -0.349367        -2.258997
 H         2.366240        -1.665603        -1.336138
