19
Iteration:  1869
 C        -0.010346        -0.501914         0.254883
 C         1.397375        -0.062443         0.039642
 C         2.585716        -0.463178         1.022170
 C         3.147019         0.742253         0.230067
 C         4.571006         1.249125         0.178540
 O         4.823597         0.203165        -0.853153
 C         3.362065         0.277599        -1.208873
 C         2.190958        -0.636738        -1.315032
 O         1.731267         1.330180         0.129454
 H        -0.446694         0.022825         1.027710
 H        -0.676565        -0.382995        -0.622460
 H        -0.181731        -1.515493         0.519847
 H         2.464270        -0.096192         2.021715
 H         3.099743        -1.395040         0.951892
 H         4.755486         2.201289        -0.294126
 H         5.224659         1.205780         1.110983
 H         3.378604         1.051857        -1.996760
 H         1.520479        -0.648009        -2.269763
 H         2.388276        -1.748781        -1.113483
