19
Iteration:  1608charge 0 multiplicity 1
 C        -0.028617        -0.652514         0.290086
 C         1.386250        -0.182275         0.014208
 C         2.586940        -0.384811         0.960365
 C         3.104566         0.846807         0.205071
 C         4.697289         1.216323         0.150957
 O         4.779119         0.148064        -0.719315
 C         3.382189         0.336161        -1.223398
 C         2.089793        -0.627927        -1.364950
 O         1.792449         1.410453         0.154554
 H        -0.273538        -0.414064         1.348680
 H        -0.813515        -0.126824        -0.310168
 H        -0.237332        -1.695862         0.091478
 H         2.357902        -0.039316         1.987046
 H         3.151962        -1.349721         0.920801
 H         4.771041         2.167848        -0.355146
 H         5.393068         1.345013         1.063998
 H         3.396894         0.907197        -2.153184
 H         1.620277        -0.181401        -2.138387
 H         2.197069        -1.686348        -1.627915
