19
Iteration:  2289charge 0 multiplicity 1
 C         0.026012        -0.585387         0.311161
 C         1.399914        -0.137690         0.039801
 C         2.559805        -0.335450         0.977019
 C         3.213072         0.753458         0.155489
 C         4.622323         1.282908         0.162977
 O         4.915660         0.102093        -0.734436
 C         3.253615         0.282473        -1.259572
 C         2.075998        -0.607143        -1.334711
 O         1.725365         1.370259         0.114623
 H        -0.168144        -0.471694         1.405951
 H        -0.719522        -0.033874        -0.157681
 H        -0.204107        -1.679341         0.145406
 H         2.239804         0.092125         1.936838
 H         2.870644        -1.363338         1.138433
 H         4.838551         2.222644        -0.321496
 H         5.361818         1.118949         1.044343
 H         3.392675         1.143693        -1.963675
 H         1.537061        -0.226530        -2.258560
 H         2.118907        -1.716756        -1.504742
