19
Iteration:  4443charge 0 multiplicity 1
 C         0.025192        -0.440474         0.336714
 C         1.490452        -0.203382        -0.031799
 C         2.545846        -0.325582         1.017006
 C         3.147157         0.824457         0.169684
 C         4.616784         1.165259         0.224978
 O         4.729029         0.186406        -0.804355
 C         3.335177         0.321567        -1.289775
 C         2.208776        -0.707164        -1.334264
 O         1.706437         1.300275         0.111576
 H        -0.266548         0.316157         1.177492
 H        -0.522400        -0.191735        -0.600008
 H         0.016368        -1.496980         0.668962
 H         2.353114         0.133894         2.047723
 H         3.231217        -1.164820         0.853987
 H         4.810942         2.165062        -0.107494
 H         4.921590         0.780414         1.293853
 H         3.343973         1.173680        -1.966114
 H         1.628451        -0.850799        -2.204857
 H         2.408495        -1.786124        -1.021720
