19
Iteration:  4471
 C        -0.071510        -0.508052         0.280379
 C         1.430336        -0.160892         0.049426
 C         2.535721        -0.399594         1.048816
 C         3.125214         0.819029         0.222944
 C         4.581844         1.211749         0.153373
 O         4.852350         0.178468        -0.878967
 C         3.409182         0.253767        -1.173461
 C         2.168242        -0.706924        -1.271321
 O         1.775442         1.412301         0.085797
 H        -0.623727        -0.116464         1.142700
 H        -0.640186        -0.225560        -0.601207
 H        -0.028591        -1.582888         0.244222
 H         2.430848        -0.104706         2.081197
 H         3.145924        -1.259080         0.830285
 H         4.729869         2.242220        -0.347993
 H         5.027083         1.187114         1.099488
 H         3.266855         1.114242        -1.871666
 H         1.645343        -0.527906        -2.246808
 H         2.187187        -1.803837        -1.187916
