19
Iteration:  3658
 C         0.078168        -0.520710         0.317227
 C         1.452461        -0.188040         0.036505
 C         2.595330        -0.376508         1.034299
 C         3.087884         0.912654         0.103848
 C         4.579184         1.230395         0.111444
 O         4.655202         0.080121        -0.697623
 C         3.385376         0.325371        -1.232584
 C         2.219127        -0.677714        -1.365806
 O         1.720649         1.336103         0.151796
 H        -0.300337        -0.059802         1.183983
 H        -0.559464         0.039275        -0.414952
 H        -0.070948        -1.618919         0.193947
 H         2.305911         0.037913         1.956756
 H         3.428444        -1.196522         0.945888
 H         4.806239         2.101548        -0.394031
 H         5.216379         1.218960         1.086488
 H         3.470307         1.056562        -2.117135
 H         1.715938        -0.484774        -2.399445
 H         2.523643        -1.740361        -1.188284
