19
Iteration:  2622charge 0 multiplicity 1
 C         0.047889        -0.520356         0.301370
 C         1.443690        -0.147754         0.102179
 C         2.656720        -0.317800         1.039859
 C         3.086933         0.861663         0.197025
 C         4.611544         1.134474         0.263119
 O         4.795344         0.128399        -0.832037
 C         3.320969         0.352231        -1.251126
 C         2.181057        -0.679897        -1.340188
 O         1.636041         1.314873         0.030022
 H        -0.291653        -0.343884         1.375841
 H        -0.602992         0.232263        -0.252399
 H        -0.279733        -1.438908        -0.127533
 H         2.546256         0.156819         2.089019
 H         3.485444        -1.118453         0.886422
 H         5.003728         2.121298        -0.170449
 H         5.055166         0.834685         1.176511
 H         3.352968         1.125634        -2.049741
 H         1.497749        -0.597819        -2.195999
 H         2.468307        -1.774400        -1.473777
