19
Iteration:  3680
 C        -0.064075        -0.541568         0.319593
 C         1.467055        -0.184875         0.037058
 C         2.703292        -0.256691         1.004817
 C         3.153098         0.908553         0.133903
 C         4.600007         1.218649         0.181718
 O         4.821651         0.051039        -0.769248
 C         3.385133         0.334497        -1.214982
 C         2.147084        -0.673311        -1.314018
 O         1.601759         1.307051         0.078297
 H        -0.422853        -0.213514         1.294953
 H        -0.853481        -0.047436        -0.311826
 H        -0.095058        -1.648960         0.176029
 H         2.305068         0.075782         1.920587
 H         3.295541        -1.263793         0.877876
 H         4.985166         2.100625        -0.213835
 H         5.156578         0.986409         1.178562
 H         3.384222         1.206329        -1.939830
 H         1.422907        -0.439665        -2.168882
 H         2.673848        -1.668413        -1.362694
