19
Iteration:  4742
 C        -0.004210        -0.515177         0.205148
 C         1.462902        -0.230574        -0.003207
 C         2.620579        -0.295742         1.046279
 C         3.114524         0.868603         0.177548
 C         4.649030         1.286096         0.136362
 O         4.812181         0.067597        -0.782784
 C         3.340458         0.270426        -1.209521
 C         2.145580        -0.612354        -1.296666
 O         1.677892         1.291448         0.170465
 H        -0.205419        -0.213493         1.299060
 H        -0.564039         0.098199        -0.516779
 H        -0.398536        -1.588354         0.093664
 H         2.387736        -0.233870         2.095325
 H         3.217059        -1.214577         1.015837
 H         4.839291         2.175024        -0.418079
 H         5.156615         1.347744         1.137664
 H         3.352092         0.995375        -2.049862
 H         1.526504        -0.220979        -2.125524
 H         2.229965        -1.668012        -1.230489
