19
Iteration:  3645
 C         0.081454        -0.494994         0.266518
 C         1.498718        -0.171522        -0.030818
 C         2.621203        -0.359810         0.965663
 C         3.068464         0.859422         0.208297
 C         4.520650         1.297202         0.121071
 O         4.773320         0.050513        -0.733503
 C         3.335614         0.288701        -1.208211
 C         2.175777        -0.667200        -1.274761
 O         1.733091         1.379273         0.126856
 H        -0.198707        -0.221623         1.276383
 H        -0.662515        -0.112392        -0.484899
 H         0.035355        -1.615968         0.340538
 H         2.351995        -0.242906         1.990358
 H         3.028923        -1.397892         1.030371
 H         4.705868         2.205310        -0.466051
 H         5.157471         1.220028         1.067111
 H         3.357325         1.060238        -1.995765
 H         1.427214        -0.589459        -2.177532
 H         2.400522        -1.719070        -1.272192
