19
Iteration:   182charge 0 multiplicity 1
 C         0.020927        -0.575843         0.241110
 C         1.471190        -0.170584         0.023709
 C         2.662692        -0.324377         0.985530
 C         3.082463         0.949083         0.190925
 C         4.702217         1.169945         0.165725
 O         4.781643         0.082656        -0.865608
 C         3.328290         0.387696        -1.239130
 C         2.206242        -0.660303        -1.271253
 O         1.549985         1.363682         0.200926
 H        -0.262309        -0.324314         1.373494
 H        -0.636983        -0.008274        -0.404235
 H        -0.205628        -1.626621         0.143293
 H         2.362904        -0.194081         2.042414
 H         3.178068        -1.339814         0.916912
 H         5.210500         2.089223        -0.004053
 H         5.164772         0.663231         1.115880
 H         3.254012         1.103661        -2.188668
 H         1.629776        -0.603133        -2.224612
 H         2.631509        -1.720155        -1.123100
