19
Iteration:  3198charge 0 multiplicity 1
 C         0.033735        -0.456499         0.287571
 C         1.472027        -0.188340        -0.009512
 C         2.675785        -0.295835         1.005403
 C         3.060750         0.822247         0.152273
 C         4.590717         1.230577         0.232707
 O         4.744400         0.183419        -0.807927
 C         3.370371         0.239231        -1.195523
 C         2.157197        -0.667802        -1.260709
 O         1.715903         1.253084         0.028410
 H        -0.413931        -0.040307         1.297394
 H        -0.480030         0.196555        -0.469916
 H        -0.333941        -1.493322         0.171556
 H         2.558415        -0.080859         2.115317
 H         3.221075        -1.270789         0.992312
 H         5.031518         2.161685        -0.164510
 H         5.111436         0.948328         1.287659
 H         3.313929         1.011858        -1.892672
 H         1.511396        -0.391424        -2.073360
 H         2.115997        -1.749175        -1.171070
