19
Iteration:  2202charge 0 multiplicity 1
 C        -0.022338        -0.519077         0.161447
 C         1.471209        -0.158538         0.068431
 C         2.625877        -0.381911         1.056998
 C         3.099382         0.805851         0.243014
 C         4.631243         1.292787         0.147004
 O         4.779516         0.092335        -0.877107
 C         3.356651         0.326079        -1.190092
 C         2.064710        -0.626961        -1.285356
 O         1.796650         1.345240         0.167560
 H        -0.505140         0.067633         0.955834
 H        -0.533554        -0.427499        -0.731547
 H         0.153714        -1.601022         0.348668
 H         2.225989        -0.192888         2.072902
 H         3.073397        -1.397634         0.934067
 H         4.805263         2.291040        -0.225024
 H         5.232272         0.902462         1.026852
 H         3.145316         1.180752        -1.964590
 H         1.419428        -0.537539        -2.161196
 H         2.374975        -1.660983        -1.145655
