19
Iteration:  4972
 C        -0.040184        -0.545386         0.239371
 C         1.423186        -0.193723         0.029794
 C         2.643855        -0.393242         1.036169
 C         3.169372         0.870253         0.239140
 C         4.587986         1.259139         0.168947
 O         4.859086         0.136219        -0.791578
 C         3.319103         0.222562        -1.189947
 C         2.039214        -0.599372        -1.312999
 O         1.781992         1.381903         0.072437
 H        -0.646714         0.068161         0.829816
 H        -0.410150        -0.549992        -0.770560
 H        -0.159814        -1.607702         0.554978
 H         2.335234        -0.068812         2.105168
 H         3.245748        -1.258947         1.147124
 H         4.778632         2.293360        -0.162820
 H         5.263305         1.080670         1.103504
 H         3.361826         0.877444        -2.109232
 H         1.362397        -0.373076        -2.109528
 H         2.234195        -1.709269        -1.433412
