19
Iteration:  1812charge 0 multiplicity 1
 C         0.026153        -0.558181         0.262740
 C         1.448646        -0.116593         0.049426
 C         2.582151        -0.328099         0.949220
 C         3.132145         0.813797         0.232217
 C         4.588176         1.193155         0.180600
 O         4.774486         0.102197        -0.826079
 C         3.333030         0.367784        -1.173871
 C         2.133818        -0.589014        -1.273585
 O         1.721606         1.289181         0.100404
 H        -0.487162        -0.138952         1.149377
 H        -0.433783        -0.309067        -0.616331
 H         0.152018        -1.679763         0.293820
 H         2.374006        -0.006721         1.981057
 H         3.274635        -1.196121         0.953431
 H         5.008647         2.077716        -0.422074
 H         5.136294         1.029231         1.053346
 H         3.513194         1.274110        -1.837578
 H         1.422751        -0.528578        -2.279031
 H         2.494964        -1.695887        -1.211161
