19
Iteration:  3927charge 0 multiplicity 1
 C        -0.001771        -0.480430         0.249496
 C         1.473974        -0.234858         0.000442
 C         2.527462        -0.330295         1.105180
 C         3.092288         0.796335         0.246239
 C         4.584862         1.202655         0.147710
 O         4.818007         0.240996        -0.911406
 C         3.377107         0.275640        -1.178656
 C         2.199030        -0.708995        -1.307654
 O         1.743458         1.337653         0.141682
 H        -0.258559        -0.009878         1.177906
 H        -0.610630        -0.219063        -0.658969
 H        -0.230009        -1.568891         0.461435
 H         2.445539         0.218521         2.064776
 H         3.027572        -1.372389         1.350080
 H         4.749406         2.190282        -0.266123
 H         5.097171         0.941609         1.067387
 H         3.246312         0.865180        -2.148308
 H         1.493447        -0.331316        -2.190432
 H         2.352370        -1.729202        -1.522797
