19
Iteration:   337charge 0 multiplicity 1
 C        -0.003927        -0.645686         0.398467
 C         1.398561        -0.093777         0.023777
 C         2.542325        -0.373473         1.044691
 C         3.104626         0.820289         0.190737
 C         4.612617         1.185050         0.243248
 O         4.748597         0.161516        -0.897539
 C         3.402729         0.402229        -1.215214
 C         2.139908        -0.590806        -1.398070
 O         1.838697         1.339158         0.062184
 H        -0.451246        -0.475978         1.403603
 H        -0.762968        -0.547629        -0.318333
 H         0.234204        -1.748121         0.360408
 H         2.388105         0.053266         2.081968
 H         2.966246        -1.411741         1.068746
 H         4.817429         2.200924        -0.162451
 H         5.196848         0.913474         1.194893
 H         3.243001         1.264893        -1.923261
 H         1.490056        -0.507838        -2.317799
 H         2.449547        -1.708572        -1.307500
