19
Iteration:  1539charge 0 multiplicity 1
 C        -0.031009        -0.484759         0.246944
 C         1.432877        -0.197279         0.043556
 C         2.675738        -0.361774         0.962959
 C         3.154481         0.856053         0.108654
 C         4.588671         1.096050         0.265730
 O         4.769912         0.175253        -0.850799
 C         3.288507         0.386550        -1.249534
 C         2.253392        -0.693783        -1.294448
 O         1.643681         1.338501         0.206041
 H        -0.289542         0.004496         1.331716
 H        -0.629407        -0.075154        -0.594570
 H        -0.346440        -1.684690         0.216071
 H         2.513393         0.014412         1.986316
 H         3.263807        -1.279890         0.896356
 H         4.951772         2.189921         0.004281
 H         5.225498         0.920034         1.091400
 H         3.265459         1.299482        -2.049999
 H         1.776814        -0.635284        -2.292438
 H         2.621201        -1.703683        -1.106060
