19
Iteration:   150
 C         0.046427        -0.544784         0.219231
 C         1.492214        -0.178506         0.090881
 C         2.650020        -0.420037         1.064371
 C         3.089084         0.881566         0.205053
 C         4.593547         1.245244         0.114235
 O         4.734486         0.131289        -0.798575
 C         3.320200         0.342669        -1.221388
 C         2.121350        -0.614919        -1.356631
 O         1.751133         1.302211         0.156811
 H        -0.570863         0.170427         1.037190
 H        -0.465759        -0.415528        -0.721264
 H         0.058450        -1.605632         0.509512
 H         2.345437        -0.143142         2.102564
 H         3.245166        -1.402194         1.013805
 H         4.840749         2.225428        -0.229990
 H         5.230528         0.953268         1.051818
 H         3.354277         1.224536        -2.044092
 H         1.484418        -0.288816        -2.179868
 H         2.280462        -1.707659        -1.484167
