19
Iteration:  4005
 C         0.051055        -0.609919         0.237905
 C         1.447685        -0.172596         0.055346
 C         2.574669        -0.327703         1.055847
 C         3.121261         0.795616         0.240799
 C         4.597694         1.278264         0.067908
 O         4.842310         0.096625        -0.721881
 C         3.382716         0.287346        -1.203008
 C         2.065641        -0.588171        -1.325486
 O         1.728431         1.346376         0.073945
 H        -0.175821        -0.256013         1.259820
 H        -0.826065        -0.231203        -0.341393
 H         0.037056        -1.710528         0.176389
 H         2.034754        -0.091635         1.931955
 H         3.327042        -1.233459         0.913957
 H         4.602338         2.157995        -0.540941
 H         5.300929         1.344617         0.925504
 H         3.322947         1.226727        -1.856420
 H         1.465102        -0.116456        -2.161678
 H         2.222819        -1.653464        -1.315280
