19
Iteration:  1953
 C         0.041868        -0.582834         0.221997
 C         1.444293        -0.186725        -0.007083
 C         2.701231        -0.307920         0.920067
 C         3.104170         0.883103         0.233922
 C         4.593086         1.202005         0.171806
 O         4.754163         0.069896        -0.739230
 C         3.319906         0.363485        -1.194468
 C         2.114022        -0.653909        -1.315388
 O         1.715960         1.364405         0.163463
 H        -0.317905        -0.276151         1.304767
 H        -0.507398         0.123546        -0.383455
 H        -0.106081        -1.732278        -0.050100
 H         2.491092         0.024827         1.968181
 H         3.377486        -1.204797         1.094494
 H         4.721495         2.236211        -0.407823
 H         5.182597         0.992132         1.029689
 H         3.344865         0.968655        -2.142988
 H         1.461693        -0.489960        -2.193793
 H         2.332679        -1.715361        -1.199370
