19
Iteration:   223
 C        -0.086237        -0.620291         0.357177
 C         1.401572        -0.196878         0.027624
 C         2.524997        -0.415766         1.149625
 C         3.129796         0.718177         0.203937
 C         4.545524         1.277950         0.189888
 O         4.933662         0.173025        -0.933786
 C         3.394306         0.358743        -1.243179
 C         2.094998        -0.559597        -1.315686
 O         1.836826         1.376293         0.040599
 H        -0.245931        -0.600261         1.351774
 H        -0.851710         0.050278        -0.187010
 H        -0.194718        -1.621825        -0.018365
 H         2.239706        -0.093898         2.137939
 H         3.065313        -1.360437         1.174642
 H         4.641155         2.288500        -0.274728
 H         5.122353         1.232306         1.131928
 H         3.414090         1.162223        -1.862920
 H         1.307508        -0.447267        -2.130590
 H         2.452087        -1.663066        -1.298555
