19
Iteration:  2656
 C         0.063619        -0.586199         0.272775
 C         1.426375        -0.109510        -0.014201
 C         2.485373        -0.368111         1.013607
 C         3.179847         0.805989         0.192518
 C         4.621366         1.267732         0.136960
 O         4.819733         0.098160        -0.745094
 C         3.383247         0.330902        -1.201594
 C         2.080205        -0.666968        -1.349736
 O         1.729613         1.362999         0.138994
 H        -0.135176        -0.413928         1.406434
 H        -0.689486        -0.021313        -0.309159
 H        -0.173750        -1.607110         0.216962
 H         2.284228         0.076257         2.068960
 H         3.094731        -1.389781         1.169210
 H         4.689467         2.231905        -0.510207
 H         5.466722         1.286063         0.782973
 H         3.253997         0.864028        -2.114512
 H         1.518450        -0.286370        -2.195363
 H         2.349742        -1.722453        -1.246286
