19
Iteration:  4082
 C        -0.084511        -0.534500         0.371270
 C         1.406082        -0.140356        -0.003082
 C         2.601641        -0.324257         1.064707
 C         3.113053         0.805481         0.258979
 C         4.630291         1.172438         0.187043
 O         4.833505         0.222489        -0.887802
 C         3.352258         0.385873        -1.127513
 C         2.197407        -0.695679        -1.327691
 O         1.731343         1.262911        -0.027197
 H        -0.508744        -0.048892         1.267827
 H        -0.798423        -0.148238        -0.370093
 H        -0.257502        -1.591239         0.304502
 H         2.396295        -0.132873         2.094334
 H         3.141278        -1.362586         1.004437
 H         4.785119         2.198729        -0.115837
 H         5.390889         1.002695         0.987603
 H         3.380905         1.147010        -1.922230
 H         1.734899        -0.596012        -2.348973
 H         2.431855        -1.778454        -1.178579
