19
Iteration:  4629charge 0 multiplicity 1
 C         0.004038        -0.453117         0.171425
 C         1.474528        -0.159862         0.063558
 C         2.745873        -0.362764         0.992443
 C         3.072869         0.877219         0.134970
 C         4.641719         1.259474         0.193030
 O         4.745306         0.083689        -0.802994
 C         3.314667         0.258772        -1.227617
 C         2.158792        -0.733996        -1.341005
 O         1.705897         1.397842         0.230281
 H        -0.625364         0.001813         0.913444
 H        -0.638692        -0.539827        -0.763545
 H         0.001256        -1.484720         0.656857
 H         2.359692         0.009191         1.898308
 H         3.110533        -1.398873         1.038866
 H         4.879363         2.154055        -0.283052
 H         5.006973         1.039982         1.233935
 H         3.198060         1.066334        -2.008309
 H         1.489700        -0.532328        -2.145553
 H         2.380288        -1.763389        -1.044968
