19
Iteration:  1679charge 0 multiplicity 1
 C        -0.074833        -0.566993         0.224537
 C         1.410253        -0.119720        -0.012777
 C         2.532877        -0.374907         1.038782
 C         3.179000         0.742489         0.279778
 C         4.627620         1.186835         0.180852
 O         4.886010         0.207717        -0.941989
 C         3.415006         0.309712        -1.131165
 C         2.164643        -0.629164        -1.274748
 O         1.709085         1.376138         0.128218
 H        -0.479027        -0.090661         1.135476
 H        -0.797084        -0.545743        -0.500885
 H        -0.046782        -1.636230         0.523888
 H         2.236414        -0.124282         2.069378
 H         2.988728        -1.360354         0.959660
 H         4.628501         2.288721        -0.147926
 H         5.368598         1.136885         0.916250
 H         3.134361         1.016502        -1.924083
 H         1.476727        -0.379775        -2.255283
 H         2.249117        -1.738903        -1.248793
