19
Iteration:  1131
 C        -0.052927        -0.523709         0.200796
 C         1.449471        -0.114575         0.038190
 C         2.641965        -0.393440         1.008625
 C         3.127776         0.859937         0.232327
 C         4.587128         1.213522         0.200987
 O         4.777612         0.208479        -0.857991
 C         3.328923         0.306115        -1.187272
 C         2.175630        -0.702893        -1.373545
 O         1.743195         1.293606         0.228349
 H        -0.529342         0.015998         0.993590
 H        -0.571266        -0.346288        -0.815117
 H         0.065739        -1.640626         0.338520
 H         2.475466         0.012323         2.019553
 H         3.178841        -1.329142         0.951796
 H         4.882568         2.191225        -0.171308
 H         5.232535         0.917296         0.982567
 H         3.148761         1.116246        -1.955139
 H         1.712738        -0.464756        -2.282359
 H         2.302198        -1.760488        -1.250909
