19
Iteration:  1441
 C        -0.000512        -0.542303         0.308973
 C         1.439776        -0.275245         0.048040
 C         2.756349        -0.340859         0.942831
 C         3.045466         0.895309         0.178336
 C         4.581832         1.187378         0.205587
 O         4.782512         0.065714        -0.777176
 C         3.287357         0.399365        -1.194074
 C         2.184243        -0.608038        -1.397915
 O         1.702197         1.376529         0.101193
 H        -0.325834        -0.136397         1.336703
 H        -0.674295        -0.028890        -0.297984
 H        -0.297097        -1.654720         0.100801
 H         2.633208        -0.225377         2.033422
 H         3.455993        -1.193143         0.936208
 H         5.070562         2.214474        -0.062763
 H         4.863079         0.800929         1.244997
 H         3.368346         1.234162        -2.005261
 H         1.427023        -0.574282        -2.169456
 H         2.514772        -1.616969        -1.232301
