19
Iteration:  1032charge 0 multiplicity 1
 C        -0.098488        -0.566498         0.312577
 C         1.435236        -0.138026         0.038372
 C         2.685862        -0.368231         0.976180
 C         3.141006         0.789128         0.180332
 C         4.556664         1.200024         0.280753
 O         4.814425         0.123883        -0.849782
 C         3.334956         0.412813        -1.207346
 C         2.221769        -0.613146        -1.385527
 O         1.721719         1.317865         0.087435
 H        -0.284319        -0.407334         1.391513
 H        -0.958535        -0.111987        -0.301972
 H         0.019456        -1.624522         0.276072
 H         2.480133        -0.030077         2.007387
 H         3.173944        -1.331627         0.994040
 H         4.631963         2.312439        -0.075686
 H         5.025462         0.872059         1.253526
 H         3.285997         1.209705        -1.958494
 H         1.546584        -0.411623        -2.155843
 H         2.507216        -1.654822        -1.409342
