19
Iteration:   301charge 0 multiplicity 1
 C         0.008070        -0.574816         0.288460
 C         1.439831        -0.159124         0.000283
 C         2.599805        -0.323909         1.028851
 C         3.090428         0.873812         0.228255
 C         4.664773         1.188022         0.189490
 O         4.866750         0.171142        -0.944860
 C         3.369358         0.351575        -1.155600
 C         2.060847        -0.620269        -1.358419
 O         1.693116         1.272798         0.177672
 H        -0.453686        -0.081781         1.206861
 H        -0.595156        -0.465077        -0.604413
 H         0.094685        -1.602260         0.455225
 H         2.247359        -0.010531         2.024078
 H         3.085228        -1.335258         1.049563
 H         4.946020         2.133549        -0.216054
 H         5.323706         1.000134         1.152488
 H         3.322302         1.109314        -1.846413
 H         1.415661        -0.397086        -2.295503
 H         2.188273        -1.792705        -1.137365
