19
Iteration:  1438
 C         0.017134        -0.540625         0.326358
 C         1.420622        -0.269927         0.047093
 C         2.734560        -0.340366         0.954753
 C         3.068805         0.877444         0.142614
 C         4.566974         1.185248         0.212128
 O         4.789354         0.065053        -0.781152
 C         3.317905         0.402580        -1.173375
 C         2.188852        -0.607020        -1.391408
 O         1.683100         1.377841         0.105241
 H        -0.282141        -0.253114         1.290729
 H        -0.790286         0.035969        -0.264981
 H        -0.306378        -1.660726         0.107770
 H         2.660721        -0.133026         1.991274
 H         3.394147        -1.184160         0.944032
 H         5.063202         2.156844        -0.071234
 H         4.819284         0.813372         1.086733
 H         3.389002         1.249558        -1.985898
 H         1.429419        -0.499671        -2.170333
 H         2.610924        -1.617014        -1.359256
