19
Iteration:   187charge 0 multiplicity 1
 C         0.067314        -0.559157         0.285374
 C         1.459526        -0.166981         0.010040
 C         2.607371        -0.326237         1.003709
 C         3.055118         0.956258         0.197236
 C         4.715590         1.130702         0.173933
 O         4.776575         0.131910        -0.869580
 C         3.349975         0.366852        -1.230185
 C         2.200232        -0.682304        -1.296361
 O         1.577260         1.356580         0.189928
 H        -0.286748        -0.440937         1.306611
 H        -0.609342         0.009326        -0.403115
 H        -0.088981        -1.654321         0.023303
 H         2.278729        -0.187132         2.035669
 H         3.143060        -1.242612         0.861012
 H         5.245909         2.097752        -0.132249
 H         5.146361         0.719783         1.028837
 H         3.295823         1.018821        -2.052436
 H         1.570681        -0.598842        -2.166691
 H         2.503777        -1.678130        -1.177592
