19
Iteration:   659
 C         0.076883        -0.407171         0.276370
 C         1.492132        -0.206422         0.005554
 C         2.675553        -0.425928         0.992285
 C         3.085798         0.831634         0.171873
 C         4.596907         1.242658         0.239425
 O         4.705944         0.182298        -0.817683
 C         3.303342         0.350748        -1.320229
 C         2.177797        -0.690681        -1.411848
 O         1.684097         1.255814         0.278752
 H        -0.282531         0.303611         1.164744
 H        -0.543326        -0.209252        -0.554246
 H        -0.105167        -1.380786         0.545671
 H         2.380491        -0.157610         2.023081
 H         3.209208        -1.390453         0.983500
 H         4.842243         2.268896        -0.118651
 H         5.191340         0.982074         1.121061
 H         3.261123         0.991417        -2.115504
 H         1.708974        -0.596175        -2.386589
 H         2.518843        -1.678850        -1.305594
