19
Iteration:   735charge 0 multiplicity 1
 C        -0.012424        -0.718768         0.275588
 C         1.456839        -0.178646         0.075045
 C         2.581857        -0.359815         1.043285
 C         3.092566         0.860142         0.177596
 C         4.622593         1.273873         0.170249
 O         4.721740         0.050674        -0.814101
 C         3.403121         0.355119        -1.242366
 C         2.135310        -0.590991        -1.362926
 O         1.820606         1.450389         0.159595
 H        -0.454356        -0.645178         1.326547
 H        -0.694827        -0.300627        -0.380743
 H         0.041039        -1.692505        -0.023204
 H         2.329168         0.024891         2.044759
 H         3.156337        -1.298218         1.004317
 H         4.732813         2.150547        -0.379212
 H         5.119072         1.280713         1.059787
 H         3.375519         1.099995        -1.970390
 H         1.402484        -0.225348        -2.103455
 H         2.288167        -1.618082        -1.567504
