19
Iteration:  3383charge 0 multiplicity 1
 C         0.014969        -0.460637         0.229777
 C         1.482634        -0.147200         0.067177
 C         2.664036        -0.398121         0.993102
 C         3.116997         0.862110         0.169535
 C         4.614947         1.259206         0.187991
 O         4.689707         0.118107        -0.815221
 C         3.307730         0.259242        -1.147206
 C         2.261543        -0.712227        -1.280873
 O         1.673834         1.353602         0.069795
 H        -0.414259         0.138859         1.081228
 H        -0.501871        -0.030813        -0.622852
 H        -0.083035        -1.500091         0.413000
 H         2.414188        -0.263232         2.086419
 H         3.247206        -1.299706         0.965955
 H         5.026306         2.078017        -0.410247
 H         5.033081         1.214531         1.302738
 H         3.128295         1.039281        -1.964549
 H         1.622430        -0.615661        -2.204287
 H         2.480732        -1.774768        -1.182735
