19
Iteration:  3644charge 0 multiplicity 1
 C         0.085346        -0.504169         0.259327
 C         1.480424        -0.170357        -0.030761
 C         2.622514        -0.360320         0.961257
 C         3.073860         0.854481         0.214191
 C         4.525154         1.298034         0.128900
 O         4.786089         0.047808        -0.739046
 C         3.323296         0.289152        -1.203810
 C         2.178102        -0.664212        -1.278175
 O         1.734329         1.380432         0.121771
 H        -0.217303        -0.189513         1.288881
 H        -0.669824        -0.080354        -0.468954
 H         0.047152        -1.614147         0.355744
 H         2.403753        -0.245041         2.033190
 H         3.017012        -1.366288         1.044811
 H         4.693416         2.255347        -0.471423
 H         5.144279         1.253601         1.065160
 H         3.343892         1.038154        -1.981984
 H         1.433279        -0.603106        -2.161007
 H         2.342568        -1.728356        -1.265180
