19
Iteration:  4420charge 0 multiplicity 1
 C        -0.079087        -0.530815         0.333703
 C         1.485596        -0.214208         0.031182
 C         2.639051        -0.323347         1.005544
 C         3.136043         0.893894         0.208210
 C         4.604187         1.262845         0.239070
 O         4.796932         0.058064        -0.838873
 C         3.348489         0.269362        -1.192801
 C         2.214710        -0.598139        -1.337140
 O         1.655864         1.318467         0.019818
 H        -0.290553         0.230842         1.232787
 H        -0.751972        -0.203854        -0.485330
 H        -0.222018        -1.541721         0.701787
 H         2.476215         0.182169         2.014707
 H         3.153504        -1.252530         0.927488
 H         4.820779         2.264045        -0.023864
 H         5.177651         0.693910         1.002269
 H         3.371157         1.065139        -1.939978
 H         1.587895        -0.418302        -2.113809
 H         2.570505        -1.680941        -1.496077
