19
Iteration:  1768
 C         0.036720        -0.609637         0.350259
 C         1.441932        -0.175600         0.011080
 C         2.607420        -0.313457         0.964857
 C         3.108296         0.840646         0.171643
 C         4.556876         1.168547         0.234978
 O         4.793492         0.133335        -0.812244
 C         3.364135         0.284588        -1.152818
 C         2.143438        -0.581467        -1.364636
 O         1.767772         1.378915         0.062802
 H        -0.236253        -0.457312         1.423761
 H        -0.601690         0.022577        -0.149882
 H        -0.254489        -1.652144         0.013160
 H         2.319700         0.013853         1.976478
 H         3.027906        -1.324215         1.088799
 H         4.642748         2.287969        -0.082910
 H         5.125268         1.016445         1.093734
 H         3.424751         1.186826        -1.900218
 H         1.576087        -0.422170        -2.455231
 H         2.221888        -1.747998        -1.429921
