19
Iteration:  2499charge 0 multiplicity 1
 C         0.052531        -0.537660         0.315951
 C         1.455579        -0.167417         0.020701
 C         2.595496        -0.394174         0.963146
 C         3.069534         0.843733         0.163855
 C         4.731408         1.131703         0.232200
 O         4.804250         0.163519        -0.806828
 C         3.297311         0.374054        -1.194974
 C         2.152726        -0.672487        -1.302831
 O         1.644102         1.421119         0.067499
 H        -0.279156        -0.076162         1.176768
 H        -0.633119        -0.178101        -0.452513
 H        -0.024958        -1.683060         0.449019
 H         2.426295        -0.201524         2.021980
 H         3.108231        -1.371963         0.848640
 H         4.919749         2.161697        -0.101381
 H         5.332593         0.947717         1.181585
 H         3.252544         0.995207        -2.088839
 H         1.429749        -0.655527        -2.164826
 H         2.365065        -1.736069        -1.246876
