19
Iteration:  2356charge 0 multiplicity 1
 C        -0.037076        -0.581644         0.279679
 C         1.418820        -0.091070        -0.024166
 C         2.491158        -0.402844         1.042104
 C         3.154485         0.780183         0.185137
 C         4.598638         1.234189         0.175833
 O         4.842335         0.172517        -0.898595
 C         3.368818         0.320553        -1.250353
 C         2.160230        -0.642677        -1.258776
 O         1.800247         1.367277         0.150774
 H        -0.374903        -0.002898         1.063333
 H        -0.701993        -0.446212        -0.507115
 H        -0.048307        -1.598585         0.730153
 H         2.291014        -0.054917         2.063480
 H         2.938981        -1.392960         1.034703
 H         4.835077         2.252851        -0.063458
 H         5.207452         0.875425         1.079401
 H         3.196758         1.135964        -1.998774
 H         1.409094        -0.667837        -2.064035
 H         2.438161        -1.650760        -1.000338
