19
Iteration:  3473
 C         0.048389        -0.474257         0.359369
 C         1.438244        -0.149930         0.032162
 C         2.597058        -0.267896         0.982191
 C         3.046797         0.872890         0.123506
 C         4.599908         1.194780         0.287443
 O         4.703567         0.084208        -0.837189
 C         3.402089         0.284281        -1.251752
 C         2.312852        -0.745492        -1.394947
 O         1.664320         1.345896         0.137823
 H        -0.334191        -0.194870         1.313502
 H        -0.713890         0.030054        -0.255226
 H         0.021353        -1.585048         0.349488
 H         2.221234         0.064483         1.876433
 H         3.100187        -1.283355         0.945982
 H         4.975272         2.064070        -0.301221
 H         5.083377         1.325466         1.378801
 H         3.447322         0.992223        -2.118873
 H         1.670774        -0.640646        -2.301686
 H         2.621424        -1.745218        -1.182094
