19
Iteration:  3208
 C         0.030231        -0.429753         0.291714
 C         1.473133        -0.196631         0.024971
 C         2.597078        -0.380241         1.027227
 C         3.140526         0.824297         0.161788
 C         4.601012         1.216402         0.212150
 O         4.799113         0.201959        -0.778052
 C         3.310418         0.284595        -1.221544
 C         2.130766        -0.715052        -1.306590
 O         1.712133         1.306755         0.029641
 H        -0.071363         0.018407         1.335307
 H        -0.618636         0.046196        -0.435211
 H        -0.245377        -1.495492         0.240565
 H         2.220171         0.053118         2.002280
 H         3.175201        -1.278631         1.084180
 H         4.864300         2.175714        -0.196965
 H         5.174881         0.930733         1.185435
 H         3.151441         1.028974        -1.940242
 H         1.521957        -0.655791        -2.151515
 H         2.577153        -1.724051        -1.256826
