19
Iteration:  3169
 C        -0.014534        -0.565987         0.254450
 C         1.428836        -0.170503         0.027871
 C         2.647580        -0.302173         1.017183
 C         3.113459         0.820932         0.105091
 C         4.643722         1.225809         0.140747
 O         4.853292         0.096386        -0.692781
 C         3.281013         0.280131        -1.272188
 C         2.120245        -0.639315        -1.295970
 O         1.704611         1.371135         0.149598
 H        -0.450881        -0.429941         1.240351
 H        -0.550405         0.145235        -0.405662
 H        -0.192301        -1.627785         0.073535
 H         2.429567         0.130789         2.005429
 H         3.103448        -1.337141         0.871866
 H         4.984070         2.192709        -0.364509
 H         5.152443         1.325822         1.049752
 H         3.545223         1.079229        -2.049081
 H         1.330595        -0.587527        -2.173751
 H         2.406210        -1.677878        -1.106028
