19
Iteration:   246charge 0 multiplicity 1
 C        -0.008899        -0.490964         0.295391
 C         1.442000        -0.123019        -0.013483
 C         2.654088        -0.398899         0.960303
 C         3.153849         0.780974         0.221037
 C         4.628343         1.310952         0.091938
 O         4.788269         0.217280        -0.814323
 C         3.334566         0.234713        -1.165649
 C         2.160441        -0.689349        -1.330430
 O         1.673005         1.286641         0.215654
 H        -0.268831        -0.264743         1.338684
 H        -0.625184         0.124626        -0.382672
 H        -0.180946        -1.499264         0.053905
 H         2.383217        -0.170213         1.992767
 H         3.110861        -1.420834         0.909662
 H         4.754028         2.324652        -0.307052
 H         5.303111         1.121387         1.022805
 H         3.359377         0.934835        -1.957946
 H         1.528280        -0.346556        -2.231303
 H         2.211176        -1.876370        -1.392417
