19
Iteration:  1117charge 0 multiplicity 1
 C         0.085913        -0.592670         0.195378
 C         1.435132        -0.177304        -0.011307
 C         2.553581        -0.362168         1.011600
 C         3.129894         0.765918         0.262756
 C         4.635470         1.276453         0.140853
 O         4.838186         0.181597        -0.870277
 C         3.388940         0.214611        -1.110007
 C         2.072930        -0.609319        -1.385279
 O         1.715658         1.392884         0.229265
 H        -0.448167        -0.112801         1.193024
 H        -0.566013        -0.235794        -0.657975
 H        -0.170433        -1.618731         0.328625
 H         2.091030        -0.270808         1.955646
 H         3.128649        -1.257068         0.953657
 H         4.702682         2.336732        -0.230177
 H         5.167737         1.230507         1.015442
 H         3.297727         1.163325        -1.831448
 H         1.484440        -0.426876        -2.279067
 H         2.163104        -1.703489        -1.264015
