19
Iteration:  3789charge 0 multiplicity 1
 C        -0.006479        -0.489230         0.238439
 C         1.440593        -0.207322         0.114463
 C         2.605552        -0.369784         1.066891
 C         3.064007         0.834624         0.100988
 C         4.512820         1.292723         0.176148
 O         4.835765         0.100233        -0.821477
 C         3.328548         0.287668        -1.281767
 C         2.214619        -0.657833        -1.274350
 O         1.781027         1.350708         0.154176
 H        -0.442316        -0.083937         1.139793
 H        -0.370794        -0.309994        -0.777768
 H        -0.188940        -1.573083         0.290599
 H         2.467045         0.033598         2.034359
 H         3.083814        -1.395316         1.167304
 H         4.728333         2.188220        -0.400120
 H         5.220017         1.150594         1.106461
 H         3.275551         1.089097        -2.020548
 H         1.477905        -0.332350        -2.060183
 H         2.295415        -1.790029        -1.317633
