19
Iteration:  2396
 C        -0.006474        -0.440942         0.256280
 C         1.457751        -0.266280        -0.010965
 C         2.595565        -0.377060         1.090071
 C         3.120490         0.786542         0.208273
 C         4.615252         1.239482         0.181772
 O         4.789344         0.180533        -0.900349
 C         3.329637         0.351524        -1.197274
 C         2.121603        -0.655911        -1.266240
 O         1.742759         1.280198         0.100530
 H        -0.026581         0.065953         1.327318
 H        -0.598927         0.076986        -0.576092
 H        -0.201443        -1.522230         0.402206
 H         2.175825        -0.052527         2.040643
 H         3.142325        -1.312225         1.181568
 H         4.943172         2.185751        -0.262995
 H         5.045799         1.032457         1.171239
 H         3.323784         1.093651        -1.986154
 H         1.643971        -0.397108        -2.238229
 H         2.558696        -1.711921        -1.236819
