19
Iteration:  4338
 C         0.066729        -0.498072         0.292982
 C         1.494104        -0.159283         0.011797
 C         2.601485        -0.317680         1.029759
 C         3.071885         0.917041         0.166557
 C         4.655146         1.200861         0.218490
 O         4.790223         0.106469        -0.819538
 C         3.335076         0.321004        -1.216899
 C         2.170976        -0.710938        -1.263170
 O         1.595888         1.252947         0.033590
 H        -0.015596        -0.131468         1.296144
 H        -0.393390         0.252347        -0.449459
 H        -0.280294        -1.551558         0.004981
 H         2.327835        -0.014694         2.068770
 H         3.219465        -1.257894         1.194246
 H         5.176023         2.130395        -0.197012
 H         5.300106         1.120502         1.118793
 H         3.286967         1.297742        -1.811295
 H         1.404070        -0.373219        -2.164008
 H         2.373417        -1.782372        -1.191743
