19
Iteration:  4851
 C         0.057380        -0.558520         0.245547
 C         1.431688        -0.122883        -0.019243
 C         2.560038        -0.376832         1.016516
 C         3.105184         0.855718         0.274220
 C         4.592738         1.266365         0.046531
 O         4.770077         0.082409        -0.781114
 C         3.363376         0.281776        -1.116246
 C         2.193882        -0.667199        -1.352696
 O         1.752418         1.393521         0.154772
 H        -0.316394        -0.250573         1.181635
 H        -0.700150        -0.085477        -0.332457
 H        -0.193830        -1.626993         0.289663
 H         2.339556        -0.067755         2.074996
 H         2.984731        -1.325366         0.746805
 H         4.743747         2.299058        -0.311772
 H         5.282642         1.073828         1.003405
 H         3.328048         1.007125        -1.970277
 H         1.525831        -0.547344        -2.198585
 H         2.325306        -1.748371        -1.420990
