19
Iteration:  1479
 C        -0.023510        -0.562729         0.238169
 C         1.438781        -0.130370         0.035369
 C         2.549101        -0.427188         1.088676
 C         3.119326         0.809177         0.224665
 C         4.567635         1.245172         0.113743
 O         4.908940         0.147511        -0.887678
 C         3.345819         0.308333        -1.209371
 C         2.134345        -0.569829        -1.355837
 O         1.746724         1.328975         0.218170
 H        -0.508964        -0.086708         1.033024
 H        -0.607801        -0.386906        -0.751951
 H        -0.052897        -1.593466         0.483852
 H         2.193665        -0.100789         2.092036
 H         3.085779        -1.395590         1.028658
 H         4.726586         2.208501        -0.337854
 H         5.172545         1.113919         1.110638
 H         3.242296         1.140680        -1.826826
 H         1.670763        -0.439005        -2.366255
 H         2.342649        -1.671527        -1.203722
