19
Iteration:  1851charge 0 multiplicity 1
 C        -0.004220        -0.430944         0.214668
 C         1.469337        -0.318765         0.012573
 C         2.648453        -0.326453         0.965622
 C         3.077076         0.874362         0.127361
 C         4.606757         1.230847         0.177955
 O         4.790797         0.118724        -0.811245
 C         3.319214         0.372703        -1.221548
 C         2.159129        -0.720376        -1.306322
 O         1.747787         1.322181         0.259681
 H        -0.506896         0.306018         0.912992
 H        -0.497873        -0.366332        -0.856426
 H        -0.192578        -1.490790         0.507051
 H         2.293961        -0.063611         1.982276
 H         3.310048        -1.217066         0.941544
 H         4.726419         2.245164        -0.156752
 H         5.036036         0.949992         1.225315
 H         3.118375         1.134680        -1.930111
 H         1.551005        -0.581089        -2.093113
 H         2.565677        -1.667994        -1.175929
