19
Iteration:  4974charge 0 multiplicity 1
 C        -0.045964        -0.554554         0.225410
 C         1.438540        -0.193852         0.045692
 C         2.645325        -0.374190         1.031622
 C         3.172095         0.875841         0.230877
 C         4.581875         1.270438         0.173976
 O         4.851400         0.116169        -0.792600
 C         3.327607         0.233157        -1.212806
 C         2.037895        -0.587574        -1.290335
 O         1.781328         1.361697         0.078433
 H        -0.660398         0.114776         0.869607
 H        -0.419920        -0.613894        -0.757845
 H        -0.176748        -1.514576         0.500893
 H         2.353355        -0.168941         2.123003
 H         3.193545        -1.288033         1.210874
 H         4.788350         2.366017        -0.151842
 H         5.221169         1.071766         1.064186
 H         3.355274         0.873209        -2.146140
 H         1.473263        -0.330253        -2.137154
 H         2.192438        -1.703512        -1.427547
