19
Iteration:  1387
 C        -0.018680        -0.608960         0.298891
 C         1.377080        -0.165689         0.082021
 C         2.585964        -0.355471         0.957997
 C         3.118232         0.809200         0.205923
 C         4.554724         1.206335         0.201469
 O         4.834504         0.117475        -0.822244
 C         3.373079         0.312506        -1.190404
 C         2.197334        -0.604239        -1.333035
 O         1.793254         1.411627         0.089985
 H        -0.376687        -0.648848         1.373969
 H        -0.693956        -0.011477        -0.198054
 H        -0.216092        -1.666647        -0.059852
 H         2.426543        -0.156239         2.049888
 H         3.083164        -1.352004         0.753498
 H         4.526606         2.178220        -0.387835
 H         5.258201         1.342029         1.128445
 H         3.298392         1.099358        -1.936863
 H         1.530120        -0.204746        -2.110990
 H         2.201155        -1.685735        -1.396572
