19
Iteration:   435charge 0 multiplicity 1
 C        -0.018742        -0.548979         0.264063
 C         1.394437        -0.107094        -0.018921
 C         2.553885        -0.418666         1.037224
 C         3.144522         0.703875         0.311871
 C         4.700667         1.177706         0.183666
 O         4.798774         0.304205        -1.005102
 C         3.351711         0.350342        -1.111819
 C         2.137263        -0.669812        -1.291517
 O         1.737155         1.347130         0.089098
 H        -0.155336        -0.314024         1.321362
 H        -0.850603        -0.158474        -0.276755
 H        -0.103554        -1.679076         0.292645
 H         2.233302        -0.083571         2.063747
 H         3.057039        -1.403022         1.085593
 H         4.819450         2.226021        -0.041924
 H         5.448437         0.910279         0.979558
 H         3.100429         1.116414        -1.739958
 H         1.594044        -0.612476        -2.302144
 H         2.446129        -1.781603        -1.057542
