19
Iteration:  1987
 C        -0.039185        -0.586787         0.322675
 C         1.407205        -0.120811         0.008517
 C         2.513555        -0.429057         1.056071
 C         3.148009         0.772097         0.289374
 C         4.584823         1.245336         0.136564
 O         4.905736         0.146347        -0.855787
 C         3.399847         0.312937        -1.165000
 C         2.107633        -0.559884        -1.346495
 O         1.759410         1.322868         0.053608
 H        -0.335768        -0.114602         1.298275
 H        -0.700664        -0.306535        -0.539045
 H        -0.121065        -1.760517         0.415499
 H         2.250420         0.119188         1.979396
 H         3.047848        -1.388862         1.128348
 H         4.614948         2.370101        -0.261571
 H         5.265554         1.257815         0.916299
 H         3.542985         1.111432        -1.952588
 H         1.481430        -0.248024        -2.217510
 H         2.182920        -1.673846        -1.381100
