19
Iteration:  3761
 C        -0.014651        -0.420243         0.182006
 C         1.449847        -0.194525         0.043852
 C         2.722981        -0.352905         1.031648
 C         3.061212         0.914798         0.215650
 C         4.705690         1.273739         0.143744
 O         4.769827         0.157267        -0.814298
 C         3.270643         0.274831        -1.146829
 C         2.156764        -0.708876        -1.293133
 O         1.679142         1.222057         0.129777
 H        -0.595891         0.184468         0.970023
 H        -0.369680        -0.192583        -0.834920
 H        -0.229474        -1.471043         0.439143
 H         2.465104        -0.238635         2.202122
 H         3.290703        -1.249973         1.065879
 H         4.988508         2.207779        -0.422155
 H         5.429711         1.100479         0.825185
 H         3.179490         1.105761        -1.892837
 H         1.559264        -0.651248        -2.158053
 H         2.194494        -1.825036        -1.189273
