19
Iteration:   209
 C         0.039952        -0.630582         0.309378
 C         1.432735        -0.125302        -0.006251
 C         2.591725        -0.321226         1.070191
 C         3.177135         0.748971         0.240809
 C         4.581269         1.197463         0.239705
 O         4.784023         0.187451        -0.910648
 C         3.305826         0.324422        -1.178167
 C         2.114697        -0.627697        -1.327120
 O         1.796028         1.370291         0.026343
 H        -0.066294        -0.637404         1.362663
 H        -0.823766        -0.013659        -0.099788
 H        -0.136566        -1.706740        -0.003064
 H         2.221611         0.147308         1.984584
 H         2.964086        -1.300545         1.246216
 H         4.774140         2.292082         0.008528
 H         5.181822         0.864512         1.003405
 H         3.120904         1.149427        -1.828078
 H         1.581075        -0.374048        -2.227815
 H         2.315130        -1.652338        -1.315159
