19
Iteration:  4133charge 0 multiplicity 1
 C        -0.043078        -0.473297         0.191484
 C         1.472887        -0.136420         0.062261
 C         2.705889        -0.362777         1.016857
 C         3.126697         0.755156         0.162769
 C         4.534677         1.274952         0.143806
 O         4.732831         0.126028        -0.804104
 C         3.297111         0.290780        -1.182821
 C         2.230683        -0.696834        -1.275094
 O         1.734939         1.361116         0.168580
 H        -0.635642        -0.140179         1.021811
 H        -0.551465        -0.216519        -0.792609
 H        -0.218175        -1.602783         0.268730
 H         2.553074        -0.031618         2.021556
 H         3.288683        -1.339836         0.995573
 H         4.850350         2.189390        -0.536396
 H         5.122569         1.243156         1.040759
 H         3.460946         1.193060        -1.830718
 H         1.396368        -0.775874        -2.114501
 H         2.676209        -1.648539        -1.159566
