19
Iteration:  3321
 C         0.047372        -0.564458         0.357205
 C         1.493372        -0.113773        -0.047061
 C         2.535673        -0.311108         0.959865
 C         3.117861         0.820197         0.205852
 C         4.539096         1.192630         0.166809
 O         4.840373         0.069482        -0.763891
 C         3.353900         0.265934        -1.192246
 C         2.155548        -0.623877        -1.260959
 O         1.711605         1.418936         0.024850
 H        -0.026696        -0.387081         1.470254
 H        -0.886347        -0.158249        -0.180068
 H        -0.130747        -1.664199         0.101369
 H         2.293823        -0.104497         2.022949
 H         3.294322        -1.237607         1.003142
 H         4.626100         1.949683        -0.586011
 H         5.120253         1.234983         1.127428
 H         3.354109         1.170124        -1.754030
 H         1.593963        -0.459476        -2.251627
 H         2.345128        -1.660272        -1.232155
