19
Iteration:   387
 C        -0.039642        -0.489176         0.257026
 C         1.464704        -0.207478         0.071408
 C         2.781558        -0.392252         0.930682
 C         3.119308         0.831263         0.155846
 C         4.585499         1.287069         0.121362
 O         4.752413         0.096572        -0.749585
 C         3.268498         0.355430        -1.191686
 C         2.151093        -0.578513        -1.294915
 O         1.732338         1.237169         0.168251
 H        -0.505349        -0.292590         1.314669
 H        -0.510509         0.171815        -0.543529
 H        -0.348169        -1.472874         0.014897
 H         2.607670        -0.198051         1.986026
 H         3.346302        -1.323433         0.782034
 H         4.828633         2.220535        -0.340850
 H         5.119846         1.223400         1.123454
 H         3.168108         1.150728        -1.989471
 H         1.515165        -0.355345        -2.166402
 H         2.378374        -1.663305        -1.297733
