19
Iteration:   513
 C        -0.031566        -0.624395         0.328898
 C         1.425739        -0.091394        -0.010273
 C         2.564776        -0.498340         1.026566
 C         3.165695         0.742332         0.231218
 C         4.568063         1.317996         0.103450
 O         4.784746         0.128899        -0.754202
 C         3.435862         0.334993        -1.229876
 C         2.087723        -0.466516        -1.374585
 O         1.817833         1.312648         0.158575
 H        -0.374283        -0.327661         1.224528
 H        -0.803906        -0.453091        -0.459621
 H         0.111682        -1.785727         0.418848
 H         2.244853        -0.332844         2.075997
 H         3.077371        -1.471670         0.912400
 H         4.472936         2.197402        -0.552215
 H         5.263446         1.459701         0.873808
 H         3.434171         1.031832        -1.954337
 H         1.582071         0.125211        -2.204365
 H         2.088495        -1.601219        -1.531014
