19
Iteration:  3041
 C         0.000605        -0.512189         0.220235
 C         1.419180        -0.144481         0.059041
 C         2.503959        -0.334358         1.102098
 C         3.128550         0.805532         0.246303
 C         4.579964         1.220487         0.074817
 O         4.900977         0.126330        -0.841449
 C         3.380204         0.279771        -1.201661
 C         2.120685        -0.620423        -1.289023
 O         1.706478         1.312020         0.146344
 H        -0.340308        -0.021674         1.156415
 H        -0.690442        -0.357301        -0.712581
 H         0.095732        -1.710583         0.197698
 H         2.287328         0.016513         2.087086
 H         3.153075        -1.238736         1.259202
 H         4.735291         2.118443        -0.603270
 H         5.347761         1.168473         1.000096
 H         3.333265         1.169396        -1.896848
 H         1.778920        -0.304499        -2.355712
 H         2.309569        -1.705003        -1.374491
