19
Iteration:  1324charge 0 multiplicity 1
 C        -0.109234        -0.532498         0.210399
 C         1.455846        -0.158180         0.063435
 C         2.564215        -0.445474         1.058991
 C         3.124147         0.782972         0.209344
 C         4.598236         1.269202         0.167564
 O         4.776727         0.212398        -0.902227
 C         3.318595         0.378366        -1.174784
 C         2.225239        -0.639855        -1.290146
 O         1.811097         1.269056         0.125420
 H        -0.376312         0.183016         1.101892
 H        -0.755116        -0.321414        -0.656119
 H        -0.069843        -1.516436         0.502216
 H         2.491890        -0.059128         2.122018
 H         3.103481        -1.419648         1.005147
 H         4.973034         2.085786        -0.275029
 H         5.162293         0.962310         1.106310
 H         3.213751         1.166939        -1.856219
 H         1.645578        -0.390910        -2.219797
 H         2.409944        -1.765363        -1.169110
