19
Iteration:  1376
 C        -0.091803        -0.563316         0.266726
 C         1.462574        -0.155798         0.068182
 C         2.625838        -0.438165         1.022567
 C         3.095995         0.831064         0.190794
 C         4.531245         1.267656         0.135730
 O         4.758800         0.126328        -0.805587
 C         3.432731         0.318935        -1.254240
 C         2.163565        -0.584559        -1.300136
 O         1.760525         1.361881         0.154908
 H        -0.441975        -0.438696         1.338008
 H        -0.580838         0.004552        -0.422098
 H        -0.098979        -1.644503        -0.086307
 H         2.441187        -0.093959         2.071966
 H         3.329285        -1.329863         0.965171
 H         4.860091         2.281135        -0.204143
 H         5.248713         0.912318         1.012535
 H         3.544063         0.962103        -2.110000
 H         1.643422        -0.436887        -2.266028
 H         2.427467        -1.651881        -1.267349
