19
Iteration:  3742
 C        -0.054504        -0.493992         0.250760
 C         1.433871        -0.155321         0.044370
 C         2.548533        -0.392452         1.040126
 C         3.160806         0.829792         0.184875
 C         4.645137         1.235063         0.092915
 O         4.776376         0.152968        -0.859128
 C         3.387567         0.324528        -1.184244
 C         2.242910        -0.716246        -1.253045
 O         1.679341         1.352376         0.143556
 H        -0.246254         0.020795         1.150305
 H        -0.600157        -0.324819        -0.676443
 H        -0.324744        -1.554314         0.472043
 H         2.290958        -0.126422         2.051686
 H         2.987314        -1.394308         1.056053
 H         4.702750         2.269026        -0.373498
 H         5.218897         1.066636         1.047755
 H         3.308576         1.136030        -1.891356
 H         1.576677        -0.664038        -2.191449
 H         2.750090        -1.606636        -1.133004
