19
Iteration:  3975charge 0 multiplicity 1
 C        -0.003720        -0.516113         0.302461
 C         1.446599        -0.161101         0.085925
 C         2.576526        -0.327187         0.999602
 C         3.079502         0.832607         0.140960
 C         4.574721         1.210110         0.202589
 O         4.775133         0.166163        -0.831017
 C         3.375100         0.335230        -1.257001
 C         2.251018        -0.706693        -1.337524
 O         1.725713         1.335830         0.129127
 H        -0.262675        -0.120522         1.340013
 H        -0.649311        -0.157658        -0.528153
 H        -0.118566        -1.605487         0.426741
 H         2.146606        -0.120475         1.976381
 H         3.189195        -1.225125         0.995293
 H         4.857118         2.176581        -0.221691
 H         5.139798         0.874028         1.145045
 H         3.175129         1.081102        -2.009057
 H         1.694925        -0.639760        -2.238980
 H         2.545024        -1.810361        -1.128987
