19
Iteration:  1524
 C         0.054521        -0.469756         0.243925
 C         1.463172        -0.121202         0.018698
 C         2.593846        -0.394858         1.034575
 C         3.066836         0.788199         0.273872
 C         4.606427         1.154186         0.206215
 O         4.794247         0.215104        -0.922019
 C         3.372430         0.348652        -1.228556
 C         2.175208        -0.678685        -1.327458
 O         1.677508         1.305885         0.169965
 H        -0.353997         0.010260         1.057582
 H        -0.520234        -0.154089        -0.708888
 H         0.049905        -1.565255         0.426453
 H         2.285124        -0.140372         2.047853
 H         3.195864        -1.303881         0.921315
 H         4.816014         2.209603        -0.072226
 H         5.116937         0.862761         1.165461
 H         3.275032         1.113376        -1.970254
 H         1.407003        -0.691075        -2.176725
 H         2.517756        -1.710121        -1.141747
