19
Iteration:  3507
 C         0.031358        -0.553166         0.329268
 C         1.438471        -0.209080         0.034043
 C         2.603863        -0.339507         0.988383
 C         3.057970         0.885360         0.148060
 C         4.572120         1.248881         0.201848
 O         4.847472         0.072687        -0.740365
 C         3.395225         0.307329        -1.189277
 C         2.085035        -0.636853        -1.260967
 O         1.727161         1.368047         0.003681
 H        -0.109207        -0.321804         1.348453
 H        -0.564848         0.032967        -0.377817
 H        -0.228970        -1.630934         0.090919
 H         2.334674        -0.230833         1.980121
 H         3.190551        -1.288200         0.926185
 H         4.713105         2.052500        -0.565798
 H         5.231422         1.332291         1.159669
 H         3.474520         1.050647        -1.974216
 H         1.507672        -0.368626        -2.136061
 H         2.375807        -1.633600        -1.505119
