19
Iteration:  4946charge 0 multiplicity 1
 C         0.024996        -0.494874         0.335486
 C         1.391117        -0.112833        -0.066395
 C         2.486006        -0.377739         1.019677
 C         3.164788         0.847851         0.231961
 C         4.573643         1.228135         0.209839
 O         4.804700         0.136421        -0.853423
 C         3.409008         0.298753        -1.231187
 C         2.220802        -0.677704        -1.296254
 O         1.741042         1.325419         0.099007
 H        -0.308611         0.042184         1.277535
 H        -0.766069        -0.262255        -0.462883
 H         0.027210        -1.649159         0.563593
 H         2.176783        -0.077035         2.019602
 H         2.950143        -1.428016         0.961074
 H         4.755452         2.241508        -0.078282
 H         5.212684         0.974358         1.050850
 H         3.273317         1.034610        -2.024288
 H         1.668386        -0.579943        -2.325401
 H         2.365447        -1.739637        -1.179299
