19
Iteration:  1268charge 0 multiplicity 1
 C        -0.007719        -0.562380         0.330024
 C         1.449432        -0.205099         0.079507
 C         2.652704        -0.394389         0.969174
 C         3.143645         0.838509         0.169521
 C         4.617376         1.190023         0.270620
 O         4.725693         0.143896        -0.793128
 C         3.353877         0.412184        -1.249622
 C         2.155628        -0.581819        -1.361327
 O         1.711760         1.313084         0.044630
 H        -0.492236        -0.260955         1.314104
 H        -0.606054        -0.146416        -0.416042
 H        -0.238827        -1.613251         0.265207
 H         2.463206         0.027449         1.993756
 H         3.329533        -1.313230         1.000841
 H         4.903765         2.018119        -0.291019
 H         5.323323         1.017757         1.192365
 H         3.274283         1.199401        -1.921362
 H         1.519893        -0.468769        -2.302799
 H         2.469703        -1.652847        -1.183284
