19
Iteration:   778
 C         0.004201        -0.438153         0.260582
 C         1.459140        -0.249796         0.059580
 C         2.643204        -0.389994         1.025696
 C         3.123624         0.855980         0.148656
 C         4.558662         1.273739         0.222187
 O         4.795681         0.152010        -0.877474
 C         3.391975         0.362107        -1.256875
 C         2.211639        -0.705583        -1.325526
 O         1.622520         1.271874         0.211903
 H        -0.305794         0.091461         1.242751
 H        -0.552159        -0.039619        -0.518671
 H        -0.222295        -1.461823         0.334301
 H         2.450503        -0.114304         2.076203
 H         3.169696        -1.348744         0.944899
 H         4.913414         2.170830        -0.189735
 H         5.159166         0.931373         0.931769
 H         3.401234         1.127191        -2.058459
 H         1.577881        -0.403301        -2.176753
 H         2.332843        -1.754771        -1.373914
