19
Iteration:  1007
 C         0.036311        -0.595437         0.233703
 C         1.470635        -0.198208         0.003977
 C         2.476720        -0.463988         1.050454
 C         3.139683         0.805057         0.274878
 C         4.711575         1.287275         0.114774
 O         4.837422         0.194636        -0.847873
 C         3.349013         0.295322        -1.139724
 C         2.110929        -0.565146        -1.383020
 O         1.729169         1.345519         0.169791
 H        -0.343454        -0.057632         1.286959
 H        -0.534908        -0.144165        -0.595061
 H        -0.091542        -1.683436         0.402002
 H         2.065611        -0.176295         1.979760
 H         2.794604        -1.480445         1.196269
 H         4.633791         2.342884        -0.375572
 H         5.331485         1.172953         0.921300
 H         3.293706         1.029624        -2.049129
 H         1.520858        -0.289317        -2.251997
 H         2.061634        -1.652425        -1.350692
