19
Iteration:  4147charge 0 multiplicity 1
 C        -0.050882        -0.517683         0.193702
 C         1.432131        -0.236241         0.061124
 C         2.682623        -0.370405         0.997109
 C         3.115681         0.966532         0.226507
 C         4.655537         1.269035         0.119968
 O         4.755550         0.057530        -0.781447
 C         3.335574         0.410576        -1.211773
 C         2.164196        -0.711879        -1.231377
 O         1.691892         1.303478         0.117805
 H        -0.315668         0.082425         1.058906
 H        -0.556484        -0.007424        -0.608676
 H        -0.285666        -1.545618         0.190715
 H         2.534360        -0.256268         2.074482
 H         3.301691        -1.348019         0.808952
 H         4.785267         2.292341        -0.336188
 H         5.322767         1.147640         1.036349
 H         3.140998         1.048888        -2.044770
 H         1.721846        -0.651921        -2.220453
 H         2.497392        -1.776781        -1.027282
