19
Iteration:  1253charge 0 multiplicity 1
 C         0.006796        -0.544506         0.279648
 C         1.476620        -0.222178         0.013570
 C         2.727011        -0.323796         1.011054
 C         3.066566         0.877605         0.138755
 C         4.609178         1.176217         0.144031
 O         4.822878         0.025596        -0.721519
 C         3.275620         0.457233        -1.260152
 C         2.171221        -0.597355        -1.340541
 O         1.602980         1.305846         0.164410
 H        -0.063518        -0.165501         1.228057
 H        -0.612776         0.146355        -0.373291
 H        -0.223004        -1.712984         0.115352
 H         2.523944        -0.049707         2.059247
 H         3.291809        -1.264442         0.854288
 H         4.877449         2.181120        -0.121538
 H         5.025238         0.976461         1.093022
 H         3.568956         1.210021        -2.049060
 H         1.468152        -0.488491        -2.157839
 H         2.654886        -1.536586        -1.394672
