19
Iteration:  2910
 C        -0.117657        -0.522266         0.208619
 C         1.493395        -0.152505        -0.005862
 C         2.670335        -0.367317         1.034535
 C         3.129735         0.886487         0.190912
 C         4.661511         1.213141         0.126035
 O         4.731681         0.100101        -0.768467
 C         3.306085         0.337312        -1.214431
 C         2.205965        -0.727284        -1.349394
 O         1.711067         1.376551         0.195386
 H        -0.438872         0.085478         1.049507
 H        -0.576406        -0.393644        -0.791318
 H        -0.138918        -1.606219         0.602062
 H         2.337321         0.129887         1.920424
 H         3.362877        -1.288198         1.042777
 H         4.779572         2.158185        -0.300274
 H         5.296810         1.120054         1.082860
 H         3.240523         1.068832        -1.979278
 H         1.438362        -0.856362        -2.146227
 H         2.746863        -1.571945        -1.021709
