19
Iteration:  2170
 C        -0.030750        -0.538734         0.302036
 C         1.400592        -0.152099         0.027124
 C         2.513831        -0.343201         1.042879
 C         3.088394         0.792346         0.228588
 C         4.612436         1.211579         0.137179
 O         4.869648         0.142478        -0.879982
 C         3.416885         0.274819        -1.197603
 C         2.151228        -0.655603        -1.388812
 O         1.773793         1.415687         0.167257
 H        -0.408883        -0.200206         1.293666
 H        -0.682009        -0.450100        -0.505844
 H         0.090530        -1.690617         0.553404
 H         2.127537        -0.232215         2.084695
 H         2.938174        -1.400229         0.903144
 H         4.585782         2.308207        -0.078791
 H         5.361581         1.048407         0.973490
 H         3.377818         1.257510        -1.821171
 H         1.532878        -0.457172        -2.235301
 H         2.283554        -1.696482        -1.410077
