19
Iteration:  1827charge 0 multiplicity 1
 C         0.030302        -0.518805         0.186639
 C         1.507944        -0.217976         0.052948
 C         2.744026        -0.388294         1.092646
 C         3.067566         0.915187         0.187629
 C         4.609237         1.200178         0.196701
 O         4.676982         0.076623        -0.822765
 C         3.307935         0.363793        -1.216301
 C         2.205206        -0.658822        -1.336314
 O         1.678210         1.378854         0.129564
 H        -0.292014         0.119885         1.001811
 H        -0.604861        -0.224134        -0.783200
 H        -0.160224        -1.512179         0.487020
 H         2.511612        -0.199403         2.126933
 H         3.244850        -1.314188         0.932575
 H         4.797690         2.163865        -0.157813
 H         5.206005         0.832309         1.160217
 H         3.156059         1.018637        -1.993924
 H         1.644365        -0.336839        -2.153721
 H         2.470593        -1.695760        -1.322190
