19
Iteration:     7charge 0 multiplicity 1
 C         0.045767        -0.544724         0.306184
 C         1.476045        -0.120435         0.055573
 C         2.595051        -0.366294         0.971582
 C         3.115603         0.839442         0.232385
 C         4.621424         1.239043         0.172790
 O         4.740659         0.161179        -0.847963
 C         3.341175         0.287863        -1.218461
 C         2.129598        -0.679811        -1.335469
 O         1.755843         1.315914         0.165458
 H        -0.400323        -0.294597         1.336505
 H        -0.629688        -0.118785        -0.455243
 H        -0.020770        -1.631568         0.159606
 H         2.082121        -0.038170         1.913308
 H         3.209936        -1.306504         0.855782
 H         4.734216         2.208819        -0.348185
 H         5.340714         1.104891         1.057789
 H         3.215628         1.146123        -1.930405
 H         1.676119        -0.317683        -2.275564
 H         2.281297        -1.764710        -1.431590
