19
Iteration:  2089charge 0 multiplicity 1
 C         0.056375        -0.595948         0.281600
 C         1.393257        -0.085560         0.043528
 C         2.552981        -0.392528         1.099068
 C         3.141571         0.776821         0.245586
 C         4.601020         1.251864         0.120740
 O         4.846292         0.112952        -0.791580
 C         3.314079         0.276705        -1.258151
 C         2.092765        -0.582625        -1.396723
 O         1.806282         1.383230         0.129958
 H        -0.381924        -0.599596         1.256290
 H        -0.769693        -0.121726        -0.337730
 H         0.082786        -1.564181        -0.061257
 H         2.092977        -0.070042         2.021920
 H         2.878336        -1.390323         1.244620
 H         4.675779         2.121613        -0.490335
 H         5.145090         1.377392         1.127828
 H         3.495043         1.108569        -2.028264
 H         1.487534        -0.392951        -2.333385
 H         2.362842        -1.708221        -1.266030
