19
Iteration:  1874charge 0 multiplicity 1
 C         0.002345        -0.513999         0.299201
 C         1.387104        -0.079629         0.033086
 C         2.535534        -0.460196         1.008317
 C         3.145804         0.700776         0.236359
 C         4.634803         1.233096         0.154502
 O         4.784458         0.255554        -0.838384
 C         3.432661         0.242303        -1.174381
 C         2.179366        -0.628678        -1.335488
 O         1.746127         1.350099         0.086175
 H        -0.600647         0.022505         1.151753
 H        -0.641145        -0.329468        -0.615943
 H        -0.146372        -1.647900         0.394278
 H         2.377669        -0.125447         2.068008
 H         3.150877        -1.403934         0.932646
 H         4.579138         2.259682        -0.335872
 H         5.242649         1.177529         1.088991
 H         3.242756         1.022948        -1.939340
 H         1.525254        -0.474617        -2.127257
 H         2.302019        -1.630765        -1.069855
