19
Iteration:  3598charge 0 multiplicity 1
 C         0.009925        -0.523161         0.251138
 C         1.505927        -0.203813         0.052284
 C         2.506759        -0.328233         1.089130
 C         3.121135         0.798581         0.117709
 C         4.589192         1.206528         0.257094
 O         4.854914         0.208638        -0.899857
 C         3.352183         0.294642        -1.217622
 C         2.140829        -0.688371        -1.263871
 O         1.702759         1.320243         0.075422
 H        -0.301639         0.129827         1.185298
 H        -0.589001        -0.140942        -0.620614
 H        -0.346011        -1.500752         0.594956
 H         2.321918         0.091216         2.176443
 H         3.092799        -1.182323         1.293248
 H         4.940544         2.231491        -0.218317
 H         5.115184         0.929985         1.134347
 H         3.296629         1.054604        -1.956413
 H         1.680882        -0.516315        -2.249194
 H         2.483234        -1.752376        -1.411683
