19
Iteration:  3301charge 0 multiplicity 1
 C        -0.003533        -0.516174         0.289099
 C         1.421362        -0.137369         0.073626
 C         2.618957        -0.312987         0.991471
 C         3.110184         0.895528         0.138748
 C         4.691743         1.253598         0.139609
 O         4.730563         0.062992        -0.725168
 C         3.371221         0.317878        -1.216830
 C         2.176489        -0.707494        -1.348821
 O         1.680174         1.335435         0.127767
 H        -0.271418        -0.216577         1.283445
 H        -0.719221        -0.198161        -0.497777
 H        -0.169418        -1.615007         0.144744
 H         2.240553        -0.096192         1.997554
 H         3.248066        -1.301119         0.903810
 H         4.976533         2.228848        -0.473191
 H         5.163511         1.122832         1.065703
 H         3.512980         1.073293        -2.018055
 H         1.580273        -0.651348        -2.293600
 H         2.552853        -1.753236        -1.179190
