19
Iteration:  1436charge 0 multiplicity 1
 C         0.020159        -0.547795         0.333312
 C         1.417679        -0.259072         0.042382
 C         2.710710        -0.340726         0.962541
 C         3.086704         0.868630         0.118877
 C         4.556404         1.188854         0.207447
 O         4.789211         0.069260        -0.784736
 C         3.343953         0.405108        -1.175090
 C         2.187768        -0.606800        -1.379133
 O         1.669570         1.374421         0.109496
 H        -0.247128        -0.347598         1.330648
 H        -0.812400         0.073805        -0.254313
 H        -0.271378        -1.575874         0.145990
 H         2.639075        -0.027610         2.016446
 H         3.363971        -1.218690         0.909262
 H         5.024089         2.072908        -0.074717
 H         4.887291         0.784935         1.144792
 H         3.395392         1.193813        -1.907881
 H         1.453302        -0.431850        -2.200121
 H         2.671124        -1.638577        -1.458671
