19
Iteration:  2527charge 0 multiplicity 1
 C        -0.011918        -0.515116         0.270775
 C         1.435053        -0.172192         0.035922
 C         2.683219        -0.315970         0.970142
 C         3.083218         0.803665         0.125530
 C         4.596505         1.180013         0.256469
 O         4.726943         0.119283        -0.850633
 C         3.339352         0.332214        -1.213625
 C         2.230709        -0.613118        -1.316631
 O         1.758562         1.322348         0.178119
 H        -0.533492         0.231491         0.987282
 H        -0.631207        -0.432987        -0.627733
 H        -0.200406        -1.544423         0.558961
 H         2.402833        -0.026575         1.986098
 H         3.313130        -1.186711         0.969570
 H         4.735623         2.169271        -0.183609
 H         5.148905         1.005994         1.192688
 H         3.160379         1.034513        -2.070105
 H         1.588520        -0.537520        -2.213781
 H         2.304497        -1.691551        -1.208619
