19
Iteration:  3849
 C         0.031586        -0.546401         0.373102
 C         1.482036        -0.179242         0.012402
 C         2.666540        -0.299383         1.038781
 C         3.067306         0.846557         0.060519
 C         4.638395         1.182063         0.244048
 O         4.721499         0.097571        -0.719885
 C         3.323877         0.358121        -1.299710
 C         2.198336        -0.596928        -1.342538
 O         1.696344         1.270597         0.034248
 H        -0.291358        -0.284101         1.405827
 H        -0.649395         0.066684        -0.208219
 H        -0.094793        -1.646077         0.222078
 H         2.343149         0.258961         2.029221
 H         3.291746        -1.205591         1.216418
 H         5.074836         2.166127        -0.020942
 H         5.065345         0.899854         1.125946
 H         3.161717         1.197513        -2.048281
 H         1.545909        -0.362153        -2.230971
 H         2.296751        -1.681626        -1.391793
