19
Iteration:   452charge 0 multiplicity 1
 C        -0.005458        -0.516606         0.296192
 C         1.484884        -0.233004         0.105719
 C         2.559652        -0.390118         1.077251
 C         3.132704         0.843239         0.212537
 C         4.618780         1.063180         0.232667
 O         4.793818         0.270782        -0.998766
 C         3.275727         0.447252        -1.250069
 C         2.228406        -0.655757        -1.274460
 O         1.711606         1.295186         0.104882
 H        -0.602739         0.008352         1.180145
 H        -0.504427        -0.077965        -0.618709
 H        -0.251922        -1.561200         0.229235
 H         2.320199        -0.143010         2.102654
 H         3.137449        -1.328073         1.031739
 H         4.961551         2.128934         0.020414
 H         5.112993         0.590382         1.140450
 H         3.234321         1.401347        -1.986678
 H         1.615160        -0.672829        -2.141661
 H         2.682159        -1.614224        -1.285246
