19
Iteration:  1927charge 0 multiplicity 1
 C        -0.004943        -0.532210         0.268460
 C         1.456653        -0.143663         0.102875
 C         2.639826        -0.340569         0.942200
 C         3.083492         0.927965         0.177755
 C         4.627742         1.180103         0.198612
 O         4.708550         0.104942        -0.788787
 C         3.330483         0.384780        -1.234793
 C         2.272005        -0.693796        -1.316359
 O         1.673982         1.292002         0.116179
 H        -0.355436        -0.395088         1.332787
 H        -0.603360         0.233107        -0.347734
 H        -0.067263        -1.556166        -0.081551
 H         2.663674        -0.069589         2.008525
 H         3.203400        -1.257827         0.855930
 H         4.964071         2.080240        -0.232252
 H         5.050750         0.914671         1.267106
 H         3.363873         0.920846        -2.121056
 H         1.546464        -0.405020        -2.038391
 H         2.571813        -1.724740        -1.372284
