19
Iteration:  2266charge 0 multiplicity 1
 C         0.011554        -0.529090         0.391717
 C         1.402816        -0.138587        -0.015001
 C         2.581199        -0.382270         0.955657
 C         3.114714         0.783924         0.205853
 C         4.492064         1.226134         0.183889
 O         4.820732         0.166823        -0.807278
 C         3.449359         0.211126        -1.185244
 C         2.096473        -0.614175        -1.331406
 O         1.789132         1.436112         0.066093
 H        -0.209060        -0.610235         1.550047
 H        -0.823441        -0.051986        -0.115297
 H        -0.032173        -1.565503        -0.013171
 H         2.284890        -0.098385         1.957834
 H         3.116059        -1.326995         0.997029
 H         4.842324         2.213276        -0.162437
 H         5.281134         0.804303         1.005873
 H         3.494956         1.074922        -1.942528
 H         1.535238        -0.481993        -2.343202
 H         2.302906        -1.799091        -1.369535
