19
Iteration:  4878
 C        -0.003419        -0.583009         0.193312
 C         1.436159        -0.098159         0.095896
 C         2.602653        -0.329752         1.030388
 C         3.146826         0.800486         0.185621
 C         4.571468         1.271040         0.116246
 O         4.865369         0.088506        -0.728088
 C         3.322400         0.285998        -1.267236
 C         2.094505        -0.617577        -1.290401
 O         1.777443         1.337118         0.138935
 H        -0.506675        -0.559177         1.343324
 H        -0.714468         0.123225        -0.377648
 H        -0.214813        -1.612227        -0.187785
 H         2.370458        -0.003855         2.119591
 H         3.100762        -1.356480         0.982344
 H         4.649646         2.281095        -0.390586
 H         5.173541         1.334093         0.961797
 H         3.466849         0.906454        -2.136655
 H         1.313308        -0.472835        -2.090092
 H         2.364148        -1.716620        -1.385132
