19
Iteration:  2796
 C         0.032739        -0.463031         0.227675
 C         1.493578        -0.252615         0.098923
 C         2.649320        -0.332969         1.084940
 C         3.070120         0.888302         0.120892
 C         4.602876         1.236120         0.133690
 O         4.729452         0.062195        -0.733729
 C         3.333730         0.339932        -1.264013
 C         2.183057        -0.643324        -1.348237
 O         1.696233         1.262818         0.114521
 H        -0.352297        -0.329489         1.316953
 H        -0.546250         0.185089        -0.507281
 H        -0.365283        -1.481810         0.139133
 H         2.301228         0.126042         2.036157
 H         3.402023        -1.027408         1.182360
 H         4.997624         2.098560        -0.468072
 H         5.165213         1.217812         1.008774
 H         3.491246         1.194430        -1.918999
 H         1.409470        -0.288562        -2.034752
 H         2.624763        -1.690959        -1.319403
