19
Iteration:  1536charge 0 multiplicity 1
 C        -0.003376        -0.466939         0.251774
 C         1.448189        -0.187889         0.043023
 C         2.657670        -0.353202         0.966877
 C         3.143856         0.838109         0.151017
 C         4.578418         1.089807         0.265389
 O         4.784088         0.182944        -0.855488
 C         3.310877         0.386575        -1.278495
 C         2.247216        -0.698141        -1.296115
 O         1.628623         1.337548         0.205864
 H        -0.322336        -0.031070         1.201178
 H        -0.676778        -0.115498        -0.615752
 H        -0.262680        -1.610590         0.243145
 H         2.561381        -0.013449         1.988836
 H         3.275865        -1.251615         0.908590
 H         4.804715         2.187713        -0.031557
 H         5.283042         0.829276         1.023009
 H         3.204500         1.255356        -1.979445
 H         1.683361        -0.674113        -2.312743
 H         2.574887        -1.719853        -1.098617
