19
Iteration:  3842
 C         0.062032        -0.576030         0.432970
 C         1.420867        -0.201291        -0.000361
 C         2.598698        -0.319837         1.053281
 C         3.085922         0.844277         0.181847
 C         4.604918         1.196789         0.198518
 O         4.743332         0.107103        -0.761809
 C         3.373134         0.364931        -1.264490
 C         2.209619        -0.613831        -1.362652
 O         1.680636         1.329719        -0.020046
 H        -0.207767        -0.210183         1.423166
 H        -0.632764         0.058602        -0.252855
 H        -0.147180        -1.631531         0.093377
 H         2.412181         0.077266         2.001241
 H         3.325257        -1.189239         0.951878
 H         5.194881         2.074411        -0.120109
 H         5.069189         0.778027         1.202328
 H         3.397888         1.111292        -2.064438
 H         1.531515        -0.251493        -2.206365
 H         2.333671        -1.665828        -1.218958
