19
Iteration:  3242
 C        -0.065379        -0.532268         0.249809
 C         1.411926        -0.088936         0.036951
 C         2.509543        -0.383495         0.991640
 C         3.158142         0.783629         0.205318
 C         4.611659         1.230236         0.098667
 O         4.779564         0.195649        -0.855638
 C         3.383441         0.232534        -1.143487
 C         2.228854        -0.697813        -1.277283
 O         1.766920         1.361854         0.103002
 H        -0.366808         0.058286         1.240739
 H        -0.907298        -0.214548        -0.399068
 H         0.035362        -1.491731         0.759485
 H         2.102957        -0.054604         2.015264
 H         3.053051        -1.367162         1.145873
 H         4.703092         2.274885        -0.179429
 H         5.290206         1.102917         1.079026
 H         3.408834         0.979066        -1.918023
 H         1.882556        -0.533559        -2.317021
 H         2.524403        -1.717055        -1.157926
