19
Iteration:  3248charge 0 multiplicity 1
 C        -0.013960        -0.499994         0.247072
 C         1.420138        -0.097152         0.019972
 C         2.549840        -0.388951         1.022037
 C         3.137619         0.792065         0.226356
 C         4.651976         1.248985         0.124618
 O         4.795058         0.186256        -0.835738
 C         3.312852         0.277011        -1.147814
 C         2.168353        -0.724742        -1.266244
 O         1.771701         1.350644         0.076879
 H        -0.386533         0.037844         1.053955
 H        -0.787242        -0.392222        -0.515176
 H         0.008080        -1.561419         0.581894
 H         2.295570        -0.112928         2.010072
 H         3.000797        -1.359106         1.171497
 H         4.684094         2.342428        -0.199808
 H         5.215801         1.024717         0.946328
 H         3.446559         0.978812        -2.014990
 H         1.767238        -0.492783        -2.251292
 H         2.295616        -1.856557        -1.181957
