19
Iteration:  1481charge 0 multiplicity 1
 C        -0.026390        -0.566424         0.246325
 C         1.427034        -0.138883         0.032738
 C         2.539683        -0.422708         1.104256
 C         3.133415         0.809902         0.223436
 C         4.565760         1.231842         0.130544
 O         4.917818         0.158604        -0.892719
 C         3.359432         0.312401        -1.199381
 C         2.114986        -0.575122        -1.363663
 O         1.763966         1.337955         0.213187
 H        -0.589812        -0.064550         0.983694
 H        -0.651630        -0.395764        -0.734313
 H        -0.127864        -1.705038         0.480702
 H         2.167799        -0.194265         2.094704
 H         3.117529        -1.352219         1.092631
 H         4.668922         2.180948        -0.436776
 H         5.165695         1.132937         0.989888
 H         3.223214         1.204544        -1.888686
 H         1.694905        -0.443152        -2.387176
 H         2.390687        -1.636042        -1.236750
