19
Iteration:  2426
 C        -0.023884        -0.473467         0.214830
 C         1.389767        -0.114632         0.083024
 C         2.741515        -0.377199         1.020885
 C         3.114712         0.844433         0.166461
 C         4.557640         1.242709         0.155072
 O         4.743218         0.102236        -0.788475
 C         3.336397         0.300481        -1.247532
 C         2.209085        -0.722029        -1.357353
 O         1.691724         1.370419         0.217006
 H        -0.378635        -0.367628         1.358626
 H        -0.748945         0.295591        -0.332938
 H        -0.080542        -1.532618         0.110172
 H         2.583546        -0.356154         2.141140
 H         3.402581        -1.260229         0.649009
 H         5.022305         2.179473        -0.340786
 H         5.012488         1.148989         1.106605
 H         3.288681         0.992701        -2.216048
 H         1.799247        -0.788630        -2.352199
 H         2.558917        -1.791975        -1.226237
