19
Iteration:  2305charge 0 multiplicity 1
 C         0.028818        -0.514655         0.292190
 C         1.442366        -0.154864         0.052985
 C         2.659021        -0.376327         1.026576
 C         3.133147         0.860161         0.174024
 C         4.695118         1.185004         0.127478
 O         4.815562         0.069986        -0.740332
 C         3.356201         0.391132        -1.211434
 C         2.037126        -0.561756        -1.332180
 O         1.637397         1.268362         0.074129
 H        -0.501012        -0.390006         1.263935
 H        -0.604667         0.034302        -0.525441
 H        -0.089049        -1.631438         0.210807
 H         2.461460        -0.101058         2.094854
 H         3.356634        -1.264283         0.976089
 H         4.843420         2.156812        -0.427083
 H         5.174963         1.247550         1.046422
 H         3.476284         1.094858        -2.034655
 H         1.350706        -0.457310        -2.145462
 H         2.388366        -1.568026        -1.181489
