19
Iteration:  3554
 C        -0.048977        -0.539259         0.250027
 C         1.449410        -0.201671         0.038718
 C         2.580719        -0.357377         0.985624
 C         3.099935         0.839310         0.214247
 C         4.643853         1.266431         0.132114
 O         4.837315         0.095485        -0.823796
 C         3.367758         0.328679        -1.207177
 C         2.198230        -0.680262        -1.276635
 O         1.688373         1.407949         0.139319
 H        -0.378956        -0.094607         1.260325
 H        -0.473933        -0.275390        -0.738063
 H        -0.279552        -1.623012         0.239133
 H         2.261273        -0.059375         2.092213
 H         3.065006        -1.322098         1.026381
 H         4.732681         2.339788        -0.353162
 H         5.170173         1.088034         1.021041
 H         3.410905         1.069022        -1.967699
 H         1.482341        -0.795563        -2.095357
 H         2.438020        -1.766259        -1.003509
