19
Iteration:  3130
 C         0.072982        -0.581174         0.309894
 C         1.429782        -0.190163         0.039587
 C         2.551316        -0.323234         1.052854
 C         3.115805         0.837663         0.238239
 C         4.558151         1.167032         0.111199
 O         4.815646         0.065107        -0.793515
 C         3.365790         0.329861        -1.140425
 C         2.146471        -0.629188        -1.358175
 O         1.718877         1.433290         0.004403
 H        -0.299819        -0.121063         1.293247
 H        -0.537345         0.014218        -0.414634
 H        -0.132078        -1.718737         0.400930
 H         2.447691        -0.188623         2.118860
 H         3.209452        -1.180117         1.006244
 H         4.640721         2.184116        -0.324991
 H         5.223303         1.097641         1.108892
 H         3.254222         1.159885        -1.821359
 H         1.756961        -0.324734        -2.294396
 H         2.327952        -1.745233        -1.315875
