19
Iteration:  2088
 C         0.054973        -0.598900         0.278835
 C         1.399880        -0.083732         0.047602
 C         2.553328        -0.395715         1.104908
 C         3.147727         0.781001         0.240789
 C         4.598253         1.250283         0.121730
 O         4.851211         0.111574        -0.796114
 C         3.316129         0.273692        -1.248218
 C         2.092344        -0.577610        -1.398202
 O         1.799517         1.383991         0.127022
 H        -0.349931        -0.551936         1.235792
 H        -0.788025        -0.119315        -0.343016
 H         0.102960        -1.580553        -0.078785
 H         2.104861        -0.090008         2.037572
 H         2.829339        -1.387953         1.249165
 H         4.647213         2.135876        -0.508288
 H         5.119516         1.348090         1.085279
 H         3.467928         1.101028        -1.974558
 H         1.474517        -0.390031        -2.327899
 H         2.363558        -1.698338        -1.263599
