19
Iteration:  2897charge 0 multiplicity 1
 C         0.019865        -0.483246         0.223828
 C         1.410839        -0.211647         0.044602
 C         2.610874        -0.289560         0.995258
 C         3.151127         0.853339         0.209255
 C         4.643853         1.226384         0.139925
 O         4.753314         0.055290        -0.823766
 C         3.298323         0.439713        -1.207638
 C         2.235925        -0.678912        -1.230561
 O         1.665020         1.267470         0.136739
 H        -0.544666         0.253289         0.861363
 H        -0.563248        -0.342350        -0.694925
 H        -0.216788        -1.516807         0.563421
 H         2.448087        -0.126910         1.992342
 H         3.097825        -1.220646         1.004544
 H         4.952276         2.111747        -0.383409
 H         5.280118         1.056465         0.960195
 H         3.328044         1.240760        -1.900269
 H         1.834022        -0.731089        -2.278934
 H         2.564525        -1.681846        -1.052384
