19
Iteration:  1241
 C         0.095175        -0.497352         0.277648
 C         1.494765        -0.209229         0.008095
 C         2.657798        -0.303199         0.911479
 C         3.098643         0.955864         0.155433
 C         4.610082         1.231321         0.181126
 O         4.755872         0.056040        -0.741926
 C         3.332678         0.296243        -1.198122
 C         2.160896        -0.599813        -1.368283
 O         1.615413         1.266718         0.238465
 H        -0.310294        -0.466465         1.243079
 H        -0.642554         0.027880        -0.443939
 H        -0.137455        -1.632638         0.048341
 H         2.258794        -0.109128         1.908661
 H         3.352605        -1.140593         0.915345
 H         5.072948         2.019447        -0.424590
 H         5.098802         1.043875         1.072131
 H         3.334925         1.064969        -2.084173
 H         1.609698        -0.324138        -2.236973
 H         2.345439        -1.652233        -1.369640
