19
Iteration:  3055
 C         0.006989        -0.538037         0.243332
 C         1.467583        -0.101640        -0.016422
 C         2.554883        -0.358667         1.066402
 C         3.154105         0.753040         0.246549
 C         4.655842         1.291922         0.107652
 O         4.749695         0.126296        -0.825074
 C         3.337253         0.301656        -1.121469
 C         2.168833        -0.668168        -1.387782
 O         1.767251         1.324324         0.118291
 H        -0.581225         0.005531         1.079251
 H        -0.588088        -0.257548        -0.622430
 H        -0.035049        -1.580546         0.595008
 H         2.068080         0.048454         2.015184
 H         2.904158        -1.392204         1.224315
 H         4.644596         2.243669        -0.298854
 H         5.400257         1.273315         0.970955
 H         3.237194         1.022020        -1.850215
 H         1.465371        -0.528766        -2.113094
 H         2.401307        -1.724036        -1.180753
