19
Iteration:  4683charge 0 multiplicity 1
 C         0.018741        -0.550225         0.354400
 C         1.419201        -0.135291        -0.027049
 C         2.512782        -0.278951         1.052126
 C         3.120796         0.815027         0.228189
 C         4.690001         1.164730         0.172784
 O         4.818574         0.179569        -0.805423
 C         3.329035         0.253366        -1.202070
 C         2.196820        -0.677564        -1.417331
 O         1.713532         1.351220         0.090767
 H        -0.060966        -0.392905         1.403539
 H        -0.688949         0.194611        -0.081270
 H        -0.151213        -1.585475         0.080210
 H         2.161446         0.030290         2.033381
 H         2.907316        -1.318169         0.923612
 H         4.701533         2.194411        -0.324841
 H         5.321937         1.138497         1.137179
 H         3.265238         1.108195        -1.929493
 H         1.625758        -0.691083        -2.351597
 H         2.286327        -1.780348        -1.217940
