19
Iteration:  2019
 C         0.038323        -0.436926         0.284602
 C         1.531172        -0.160234         0.013791
 C         2.615949        -0.441303         0.976397
 C         3.064599         0.877806         0.184856
 C         4.583485         1.192443         0.261323
 O         4.745041         0.190252        -0.876286
 C         3.349006         0.325184        -1.235317
 C         2.193492        -0.717537        -1.321304
 O         1.719166         1.328600         0.154820
 H        -0.565388         0.210524         0.990183
 H        -0.709142        -0.341484        -0.500942
 H        -0.350947        -1.507727         0.644392
 H         2.395517        -0.147743         2.024008
 H         3.202235        -1.398398         0.989223
 H         4.897815         2.244509        -0.066141
 H         5.044879         0.790913         1.091600
 H         3.365508         1.008678        -2.060948
 H         1.653683        -0.607902        -2.263141
 H         2.455681        -1.739904        -1.106644
