19
Iteration:  2142charge 0 multiplicity 1
 C         0.065577        -0.454246         0.325486
 C         1.479469        -0.211954         0.030091
 C         2.694418        -0.312800         0.954462
 C         3.116762         0.848915         0.145528
 C         4.628973         1.134723         0.260366
 O         4.694002         0.140414        -0.772928
 C         3.342735         0.400178        -1.248700
 C         2.150373        -0.645818        -1.322786
 O         1.673157         1.236683         0.058122
 H        -0.123624        -0.131922         1.322358
 H        -0.632221         0.095056        -0.422174
 H        -0.280199        -1.466882         0.385627
 H         2.405075        -0.014247         1.954161
 H         3.083078        -1.296804         0.914494
 H         4.848044         2.200514        -0.012376
 H         5.177688         0.924014         1.135209
 H         3.366795         1.240179        -1.888976
 H         1.402280        -0.468938        -2.141795
 H         2.464618        -1.744118        -1.373520
