19
Iteration:  3342
 C        -0.000591        -0.572755         0.408302
 C         1.458064        -0.124478         0.018836
 C         2.522260        -0.327266         1.045811
 C         3.122978         0.846658         0.149616
 C         4.629303         1.320028         0.217880
 O         4.824122         0.125972        -0.760909
 C         3.338930         0.234569        -1.226626
 C         2.109990        -0.660456        -1.383640
 O         1.773953         1.333178         0.002591
 H        -0.347063        -0.437802         1.490651
 H        -0.730441        -0.032469        -0.316847
 H        -0.119029        -1.633119         0.005480
 H         2.534425         0.144115         2.032196
 H         2.909879        -1.384915         1.348522
 H         4.887101         2.297522        -0.126812
 H         5.180239         0.766994         1.054584
 H         3.436140         0.884795        -2.084210
 H         1.690227        -0.359797        -2.406598
 H         2.148185        -1.702171        -1.454846
