19
Iteration:  4668charge 0 multiplicity 1
 C        -0.007023        -0.504884         0.315309
 C         1.428960        -0.104382        -0.008700
 C         2.540572        -0.396112         1.072816
 C         3.180654         0.774991         0.233263
 C         4.618517         1.261956         0.154386
 O         4.827370         0.111000        -0.861286
 C         3.376370         0.322574        -1.132739
 C         2.129593        -0.669421        -1.320253
 O         1.674092         1.329443         0.014616
 H        -0.225770        -0.260755         1.438596
 H        -0.736309        -0.114686        -0.362034
 H         0.015225        -1.591437         0.161905
 H         2.205856         0.033864         2.155795
 H         3.154424        -1.253038         1.349030
 H         4.983658         2.328476        -0.199159
 H         5.282250         1.016415         0.943604
 H         3.337821         1.152546        -1.833081
 H         1.623742        -0.305717        -2.240130
 H         2.449085        -1.789257        -1.469764
