19
Iteration:    81
 C         0.075340        -0.427977         0.317177
 C         1.537042        -0.253211        -0.077428
 C         2.706730        -0.327389         0.953968
 C         3.041650         0.900721         0.227127
 C         4.537470         1.129811         0.234753
 O         4.788312         0.184184        -0.882338
 C         3.320589         0.375322        -1.190434
 C         2.160130        -0.698959        -1.276806
 O         1.647127         1.255817         0.158807
 H        -0.193979         0.001511         1.249539
 H        -0.606661         0.214494        -0.461417
 H        -0.282099        -1.492407         0.258558
 H         2.291187        -0.139937         1.938711
 H         3.502023        -1.029907         0.908099
 H         4.885613         2.151927        -0.012258
 H         4.950604         0.784101         1.128570
 H         3.306211         1.002549        -2.158826
 H         1.555306        -0.581438        -2.263329
 H         2.403428        -1.849488        -1.099379
