19
Iteration:  1756
 C         0.030951        -0.512779         0.298986
 C         1.471766        -0.155098        -0.020810
 C         2.634819        -0.390983         0.995388
 C         3.148394         0.780209         0.166745
 C         4.610747         1.216735         0.258973
 O         4.762045         0.109467        -0.747055
 C         3.320295         0.400632        -1.274425
 C         2.134083        -0.613464        -1.295029
 O         1.670993         1.299004         0.059234
 H        -0.063933        -0.439761         1.411165
 H        -0.640171         0.097596        -0.201835
 H        -0.139429        -1.589551         0.029795
 H         2.402297         0.061207         1.982193
 H         3.342575        -1.240301         0.960330
 H         4.961454         2.179784        -0.275489
 H         5.136396         1.011421         1.143503
 H         3.304422         1.227277        -2.114989
 H         1.349214        -0.397830        -2.217037
 H         2.529344        -1.668887        -1.098789
