19
Iteration:  3538
 C        -0.001774        -0.548605         0.211126
 C         1.389000        -0.136463         0.038139
 C         2.632128        -0.274656         1.113660
 C         3.142755         0.815101         0.137520
 C         4.567743         1.224808         0.144054
 O         4.880144         0.164869        -0.757932
 C         3.337726         0.231838        -1.215606
 C         2.049090        -0.663248        -1.323697
 O         1.762766         1.287089         0.136016
 H        -0.306552        -0.211212         1.173562
 H        -0.704662        -0.191997        -0.560254
 H        -0.018150        -1.655637         0.151211
 H         2.277387         0.181813         1.961612
 H         3.207782        -1.246926         1.174566
 H         4.737669         2.093053        -0.462792
 H         5.248977         1.298958         1.081558
 H         3.271831         1.056467        -2.008063
 H         1.576271        -0.192158        -2.210637
 H         2.353207        -1.670415        -1.434520
