19
Iteration:  1766charge 0 multiplicity 1
 C         0.030233        -0.603556         0.348217
 C         1.464786        -0.174111        -0.004231
 C         2.613128        -0.322912         0.964888
 C         3.118887         0.823916         0.165469
 C         4.564403         1.176575         0.243148
 O         4.784225         0.130551        -0.802204
 C         3.345167         0.300388        -1.171023
 C         2.140259        -0.579902        -1.350836
 O         1.751477         1.367989         0.058484
 H        -0.210893        -0.443839         1.430294
 H        -0.609085         0.071261        -0.178970
 H        -0.239892        -1.626201         0.012061
 H         2.355558         0.052171         1.990784
 H         3.075006        -1.332951         1.082924
 H         4.640232         2.272861        -0.102437
 H         5.149016         0.999790         1.116819
 H         3.465721         1.202227        -1.893022
 H         1.574554        -0.436934        -2.391964
 H         2.236408        -1.697693        -1.344434
