19
Iteration:  3310
 C         0.037903        -0.562676         0.319495
 C         1.392917        -0.142271        -0.043702
 C         2.624574        -0.335765         0.973537
 C         3.105524         0.881771         0.203997
 C         4.600303         1.251055         0.118422
 O         4.840710        -0.006390        -0.732815
 C         3.305940         0.348013        -1.170533
 C         2.173655        -0.652597        -1.315776
 O         1.672900         1.393376         0.084063
 H        -0.235243        -0.267909         1.373652
 H        -0.617778         0.096421        -0.339463
 H        -0.046352        -1.684025         0.251489
 H         2.400828         0.040976         1.996792
 H         3.159992        -1.395504         0.925139
 H         4.762183         2.274825        -0.244588
 H         5.316329         1.144325         0.971545
 H         3.346162         0.949709        -2.054093
 H         1.654407        -0.688739        -2.332975
 H         2.476297        -1.630205        -1.019858
