19
Iteration:   313
 C         0.093115        -0.665929         0.323927
 C         1.402351        -0.131394        -0.020861
 C         2.474116        -0.345371         0.963030
 C         3.188922         0.772514         0.281858
 C         4.655384         1.164213         0.133952
 O         4.904635         0.217605        -0.929427
 C         3.356981         0.294536        -1.111164
 C         2.029824        -0.588749        -1.277260
 O         1.695867         1.415465         0.100173
 H        -0.376574        -0.146573         1.261944
 H        -0.605831        -0.496880        -0.437397
 H         0.121017        -1.697595         0.520751
 H         2.098555        -0.057767         1.979676
 H         3.110235        -1.280089         0.995665
 H         4.735737         2.190141        -0.122945
 H         5.277126         0.829697         1.112781
 H         3.213177         1.117460        -1.735503
 H         1.436730        -0.322536        -2.253856
 H         2.305482        -1.773773        -1.407342
