19
Iteration:  2626
 C         0.019948        -0.512487         0.315813
 C         1.442936        -0.165676         0.108145
 C         2.666416        -0.322825         1.063811
 C         3.106502         0.896552         0.196686
 C         4.580208         1.146501         0.220277
 O         4.818767         0.112600        -0.830372
 C         3.335444         0.353226        -1.181145
 C         2.161778        -0.667166        -1.376378
 O         1.649122         1.315474         0.008222
 H        -0.326935        -0.462387         1.347490
 H        -0.613886         0.106332        -0.254374
 H        -0.320363        -1.458680        -0.113216
 H         2.563644         0.055549         2.056833
 H         3.345512        -1.137877         0.872478
 H         4.943599         2.094264        -0.153689
 H         5.130697         0.764087         1.153947
 H         3.231147         1.066948        -2.068661
 H         1.547066        -0.485801        -2.259290
 H         2.579172        -1.646900        -1.420721
