19
Iteration:  3715charge 0 multiplicity 1
 C         0.046810        -0.547252         0.315276
 C         1.419237        -0.102990        -0.005629
 C         2.500652        -0.321343         1.067571
 C         3.180428         0.803534         0.163559
 C         4.583679         1.212818         0.202907
 O         4.787852         0.199259        -0.862007
 C         3.344821         0.255689        -1.168411
 C         2.121314        -0.743459        -1.332096
 O         1.803945         1.396797         0.052145
 H        -0.219841        -0.404960         1.413185
 H        -0.689763        -0.273757        -0.485993
 H         0.136041        -1.638407         0.273055
 H         2.160761        -0.025451         2.143576
 H         3.099890        -1.261752         1.327464
 H         4.774604         2.230219        -0.108193
 H         5.022909         0.939602         1.168162
 H         3.253287         1.132413        -1.886957
 H         1.521165        -0.559972        -2.200739
 H         2.439506        -1.869653        -1.438160
