19
Iteration:  3000charge 0 multiplicity 1
 C         0.090128        -0.468711         0.281464
 C         1.474557        -0.101992         0.011681
 C         2.692060        -0.351050         0.995673
 C         3.082031         0.895110         0.142375
 C         4.577166         1.191371         0.193333
 O         4.717134         0.108127        -0.725019
 C         3.308276         0.328969        -1.230805
 C         2.164601        -0.736699        -1.345049
 O         1.709093         1.327718         0.086785
 H        -0.011207        -0.406487         1.372229
 H        -0.719705         0.019919        -0.260507
 H        -0.254085        -1.485237        -0.010930
 H         2.343959         0.009124         1.995492
 H         3.223084        -1.308806         0.804000
 H         4.863212         2.144368        -0.132274
 H         5.001649         0.918642         1.212525
 H         3.417901         1.097335        -1.946510
 H         1.372707        -0.823455        -2.025051
 H         2.602774        -1.737268        -1.210155
