19
Iteration:  4401
 C         0.057608        -0.570439         0.310846
 C         1.412987        -0.104851         0.034034
 C         2.623113        -0.368017         1.008536
 C         3.081778         0.858795         0.176815
 C         4.646411         1.211346         0.167223
 O         4.846846         0.112455        -0.726987
 C         3.387186         0.327391        -1.200876
 C         2.032308        -0.648767        -1.303417
 O         1.711721         1.333022         0.036091
 H        -0.492575        -0.120152         1.114446
 H        -0.711494        -0.299167        -0.413941
 H         0.047497        -1.670885         0.367204
 H         2.152514         0.072944         1.938661
 H         3.137940        -1.362152         1.001255
 H         4.939944         2.023138        -0.549682
 H         5.412892         1.230800         1.078728
 H         3.276162         1.108549        -1.950044
 H         1.550855        -0.348288        -2.271221
 H         2.182631        -1.745386        -1.402398
