19
Iteration:  2928
 C         0.019559        -0.536702         0.222228
 C         1.439129        -0.181326         0.050685
 C         2.598314        -0.327053         1.026307
 C         3.098491         0.837967         0.166815
 C         4.532029         1.250325         0.168057
 O         4.792749         0.121232        -0.816794
 C         3.392330         0.253772        -1.199977
 C         2.150893        -0.685010        -1.273768
 O         1.782811         1.405736         0.164598
 H        -0.457761        -0.094184         1.143729
 H        -0.564676        -0.393335        -0.680166
 H        -0.105418        -1.600977         0.306965
 H         2.412671         0.001716         2.050348
 H         3.096470        -1.222602         0.847392
 H         4.869834         2.228145        -0.339214
 H         5.052419         1.036025         1.027280
 H         3.229313         0.928717        -2.105223
 H         1.727282        -0.368143        -2.244181
 H         2.093379        -1.805527        -1.317204
