19
Iteration:  1771charge 0 multiplicity 1
 C         0.048311        -0.624575         0.357811
 C         1.406800        -0.176704         0.030926
 C         2.591864        -0.306816         0.972942
 C         3.091707         0.859739         0.185989
 C         4.545550         1.171702         0.211960
 O         4.809737         0.137467        -0.824046
 C         3.396291         0.273715        -1.142273
 C         2.138920        -0.599301        -1.399499
 O         1.788405         1.395482         0.071417
 H        -0.241345        -0.499322         1.390808
 H        -0.697604         0.041414        -0.196081
 H        -0.226428        -1.638372         0.040878
 H         2.255684        -0.028730         1.958355
 H         3.002382        -1.302946         1.064176
 H         4.690070         2.213830        -0.071951
 H         5.145319         1.010753         1.160745
 H         3.322893         1.071816        -1.870302
 H         1.650880        -0.376110        -2.356473
 H         2.227856        -1.708043        -1.521499
