19
Iteration:  2839charge 0 multiplicity 1
 C        -0.027796        -0.541272         0.361016
 C         1.348279        -0.081629         0.026487
 C         2.553850        -0.395655         1.034777
 C         3.099861         0.799453         0.140616
 C         4.570913         1.228963         0.174080
 O         4.874681         0.167868        -0.806070
 C         3.415700         0.279177        -1.260165
 C         2.176045        -0.693578        -1.276229
 O         1.746725         1.388057         0.067666
 H        -0.074115        -0.357058         1.453769
 H        -0.639295        -0.162589        -0.470004
 H         0.085564        -1.597777         0.173069
 H         2.287485        -0.052385         2.067633
 H         2.879595        -1.367659         0.887351
 H         4.753055         2.311381        -0.177470
 H         5.063881         1.015618         1.108197
 H         3.412950         0.974114        -2.187575
 H         1.728507        -0.499537        -2.255474
 H         2.246975        -1.817108        -1.020807
