19
Iteration:  4918charge 0 multiplicity 1
 C        -0.026164        -0.460667         0.334689
 C         1.410508        -0.239638        -0.024627
 C         2.617081        -0.318242         1.028694
 C         3.145914         0.895570         0.194128
 C         4.589443         1.159286         0.216318
 O         4.772063         0.128192        -0.794277
 C         3.341871         0.377224        -1.238994
 C         2.244897        -0.734406        -1.345329
 O         1.691341         1.317111         0.060654
 H        -0.182455        -0.189664         1.321415
 H        -0.585438         0.225590        -0.238004
 H        -0.302371        -1.470448         0.199107
 H         2.437303         0.061567         2.074729
 H         3.133835        -1.197670         0.850568
 H         4.845471         2.222362        -0.053457
 H         5.185211         0.749508         1.128187
 H         3.241296         1.271132        -1.963173
 H         1.681704        -0.687185        -2.250928
 H         2.573338        -1.779241        -1.140212
