19
Iteration:  3015charge 0 multiplicity 1
 C        -0.031359        -0.546114         0.272552
 C         1.438891        -0.191974         0.062019
 C         2.647842        -0.319011         0.979322
 C         3.147793         0.859649         0.145213
 C         4.648233         1.253201         0.234958
 O         4.755459         0.133019        -0.776720
 C         3.321719         0.283492        -1.204809
 C         2.092058        -0.692311        -1.284939
 O         1.754324         1.345303         0.078426
 H        -0.518951        -0.338402         1.226760
 H        -0.530045         0.024372        -0.523721
 H        -0.079120        -1.542236        -0.112917
 H         2.538867        -0.018076         2.044808
 H         3.283805        -1.187424         1.045706
 H         4.971221         2.250596        -0.298624
 H         5.157177         1.065806         1.120228
 H         3.250615         1.044451        -2.079153
 H         1.711378        -0.429332        -2.303285
 H         2.202347        -1.804295        -1.222285
