19
Iteration:  3446charge 0 multiplicity 1
 C        -0.001276        -0.543320         0.250854
 C         1.407093        -0.182520         0.039863
 C         2.678835        -0.335994         1.058037
 C         3.107653         0.800693         0.195019
 C         4.679731         1.189703         0.211112
 O         4.811012         0.208578        -0.817324
 C         3.317902         0.292116        -1.164746
 C         2.037069        -0.666738        -1.257304
 O         1.766724         1.332016        -0.027300
 H        -0.451495        -0.028796         1.152170
 H        -0.662774        -0.212588        -0.576880
 H        -0.125908        -1.616628         0.410031
 H         2.116707         0.083152         1.986392
 H         3.186042        -1.273939         1.045560
 H         4.907181         2.168904        -0.244743
 H         5.194648         1.162370         1.138144
 H         3.336713         1.076227        -1.959858
 H         1.512842        -0.425793        -2.207955
 H         2.349545        -1.747843        -1.054049
