19
Iteration:  1224charge 0 multiplicity 1
 C         0.016610        -0.635493         0.240410
 C         1.437704        -0.120931         0.007224
 C         2.687853        -0.392981         1.012086
 C         3.099899         0.805724         0.184053
 C         4.615845         1.277872         0.175318
 O         4.740869         0.101853        -0.735690
 C         3.360202         0.335934        -1.221869
 C         2.090770        -0.630356        -1.345654
 O         1.741484         1.397156         0.134943
 H        -0.175700        -0.382613         1.319192
 H        -0.637348        -0.037201        -0.308511
 H        -0.121252        -1.678379        -0.010744
 H         2.538577        -0.066083         2.057415
 H         3.158396        -1.412708         0.860985
 H         4.665372         2.287242        -0.278107
 H         5.329128         1.094681         1.117657
 H         3.467785         1.015550        -2.004427
 H         1.515835        -0.240611        -2.256506
 H         2.161104        -1.757434        -1.327685
