19
Iteration:  4236charge 0 multiplicity 1
 C         0.011150        -0.513493         0.245839
 C         1.460480        -0.189751         0.047553
 C         2.691127        -0.310154         1.005780
 C         3.137087         0.892883         0.179989
 C         4.574373         1.198019         0.111783
 O         4.735018         0.084082        -0.742974
 C         3.379565         0.368494        -1.226181
 C         2.166860        -0.651982        -1.308113
 O         1.644968         1.275436         0.108752
 H        -0.251310         0.027540         1.186749
 H        -0.658332        -0.167323        -0.486689
 H        -0.112340        -1.535983         0.448175
 H         2.450788         0.204566         1.990314
 H         3.220162        -1.262269         1.069887
 H         4.873053         2.149587        -0.346903
 H         5.096134         0.963993         1.126583
 H         3.528723         1.100449        -1.970637
 H         1.704051        -0.500030        -2.226176
 H         2.344138        -1.781928        -1.151228
