19
Iteration:  1836
 C        -0.006251        -0.509466         0.168144
 C         1.525455        -0.314390         0.051912
 C         2.733507        -0.365624         1.019341
 C         3.076425         0.903324         0.209384
 C         4.595839         1.194956         0.208654
 O         4.653749         0.150332        -0.806208
 C         3.300502         0.333941        -1.230650
 C         2.188616        -0.691886        -1.324162
 O         1.691009         1.398345         0.200584
 H        -0.096779         0.303040         0.814835
 H        -0.421596        -0.138087        -0.766664
 H        -0.389879        -1.414749         0.583403
 H         2.538734        -0.004940         2.006628
 H         3.315707        -1.265627         1.058229
 H         5.064249         2.025577        -0.309549
 H         5.269023         0.885692         1.068391
 H         3.448400         0.963878        -2.113118
 H         1.611358        -0.455019        -2.346203
 H         2.493065        -1.806233        -1.357629
