19
Iteration:  4866
 C        -0.046785        -0.579938         0.218110
 C         1.388734        -0.123886         0.011194
 C         2.609552        -0.381127         0.994197
 C         3.138930         0.819142         0.193095
 C         4.591721         1.316785         0.136489
 O         4.802000         0.067131        -0.771321
 C         3.366711         0.242142        -1.187847
 C         2.119661        -0.618102        -1.308169
 O         1.808715         1.391577         0.177091
 H        -0.303497        -0.497112         1.450364
 H        -0.790302        -0.040495        -0.461100
 H         0.037726        -1.628634        -0.062481
 H         2.146934        -0.040082         2.018112
 H         3.247910        -1.275220         1.114266
 H         4.600362         2.077384        -0.678685
 H         5.248774         1.482945         0.916183
 H         3.320616         1.070067        -1.880009
 H         1.718990        -0.368243        -2.290711
 H         2.309367        -1.738482        -1.125665
