19
Iteration:  1838charge 0 multiplicity 1
 C         0.003910        -0.501427         0.182383
 C         1.516283        -0.333633         0.042611
 C         2.717040        -0.357310         0.997293
 C         3.079911         0.897392         0.202756
 C         4.594536         1.197254         0.193966
 O         4.660813         0.158468        -0.801899
 C         3.307867         0.337632        -1.233852
 C         2.183420        -0.697291        -1.327237
 O         1.700483         1.390377         0.218266
 H        -0.178690         0.317632         0.818575
 H        -0.437298        -0.144842        -0.854806
 H        -0.432972        -1.366347         0.560388
 H         2.510595         0.032355         1.976468
 H         3.353968        -1.205470         1.059656
 H         5.070225         1.992006        -0.258492
 H         5.289287         0.917662         1.131733
 H         3.443411         0.940240        -2.029177
 H         1.613093        -0.552922        -2.216847
 H         2.470747        -1.741290        -1.365569
