19
Iteration:  2473charge 0 multiplicity 1
 C        -0.025745        -0.570203         0.322418
 C         1.460979        -0.144490        -0.004129
 C         2.585209        -0.340871         1.152343
 C         3.079983         0.805549         0.172218
 C         4.586541         1.232390         0.147822
 O         4.847407         0.079943        -0.852607
 C         3.348918         0.338856        -1.166350
 C         2.148356        -0.566090        -1.412855
 O         1.760843         1.297112         0.069951
 H        -0.271594        -0.528956         1.512934
 H        -0.770162         0.049956        -0.233013
 H         0.064584        -1.713712         0.200755
 H         2.255071         0.271091         1.982558
 H         3.025810        -1.273823         1.369566
 H         4.838362         2.232621        -0.197596
 H         5.022526         1.062825         1.176674
 H         3.496921         1.159575        -1.890585
 H         1.412656        -0.212901        -2.206046
 H         2.314536        -1.663199        -1.563849
