19
Iteration:  3028
 C        -0.047000        -0.587493         0.184638
 C         1.431112        -0.173710         0.068878
 C         2.625422        -0.326427         1.071514
 C         3.103510         0.844701         0.174659
 C         4.588645         1.224036         0.127354
 O         4.884998         0.108123        -0.854922
 C         3.422607         0.243506        -1.168197
 C         2.138376        -0.603257        -1.248367
 O         1.693238         1.378095         0.119841
 H        -0.408688        -0.253420         1.168948
 H        -0.683371         0.035358        -0.524917
 H        -0.335918        -1.702269         0.299362
 H         2.320544         0.032268         2.030095
 H         3.096552        -1.317111         0.968874
 H         4.765122         2.330771        -0.257595
 H         5.181376         1.095970         1.070398
 H         3.435428         0.999436        -2.055499
 H         1.288083        -0.272427        -1.986103
 H         2.271434        -1.703699        -1.305562
