19
Iteration:    69charge 0 multiplicity 1
 C         0.072013        -0.466140         0.243311
 C         1.456588        -0.201792         0.016320
 C         2.771154        -0.313402         1.040596
 C         3.062695         0.917766         0.178303
 C         4.645610         1.159736         0.205628
 O         4.736855         0.200144        -0.841268
 C         3.278030         0.271882        -1.183430
 C         2.176681        -0.703612        -1.364402
 O         1.599769         1.274110         0.163220
 H        -0.034524        -0.267020         1.222719
 H        -0.538237         0.319225        -0.430870
 H        -0.268551        -1.518761         0.015725
 H         2.450975        -0.124438         2.062374
 H         3.423274        -1.134638         0.999483
 H         5.231298         2.073890        -0.060760
 H         5.008812         0.799209         1.099502
 H         3.146191         1.119047        -1.902386
 H         1.551630        -0.496490        -2.318588
 H         2.410482        -1.848609        -1.300885
