19
Iteration:  3634charge 0 multiplicity 1
 C         0.021254        -0.572142         0.265365
 C         1.391276        -0.115641         0.019845
 C         2.603391        -0.377304         1.013285
 C         3.155251         0.809448         0.195565
 C         4.575988         1.302063         0.172235
 O         4.862988         0.085952        -0.781635
 C         3.303615         0.275265        -1.143178
 C         2.115765        -0.684763        -1.321666
 O         1.740744         1.371504         0.073509
 H        -0.219801        -0.037192         1.173575
 H        -0.667024        -0.117455        -0.505813
 H        -0.098014        -1.675284         0.289660
 H         2.535119         0.039821         1.983997
 H         3.277639        -1.266466         0.783992
 H         4.570844         2.251844        -0.368273
 H         5.196727         1.432166         1.112669
 H         3.286435         1.022896        -1.948968
 H         1.593539        -0.415166        -2.350440
 H         2.195929        -1.719274        -1.082699
