19
Iteration:  2794
 C         0.021497        -0.457697         0.235167
 C         1.495765        -0.242751         0.115287
 C         2.644800        -0.323663         1.087197
 C         3.079996         0.888870         0.129736
 C         4.583405         1.236953         0.127341
 O         4.741063         0.068578        -0.736855
 C         3.328866         0.319677        -1.266467
 C         2.189612        -0.639053        -1.359331
 O         1.687494         1.264806         0.118140
 H        -0.308982        -0.330902         1.270642
 H        -0.508142         0.142689        -0.549713
 H        -0.291737        -1.541652         0.075262
 H         2.321494         0.162354         2.040324
 H         3.360936        -1.140415         1.132003
 H         5.027703         2.069775        -0.480890
 H         5.220145         1.174570         1.064152
 H         3.523666         1.221373        -1.952767
 H         1.388715        -0.299748        -2.012163
 H         2.604260        -1.705436        -1.339245
