19
Iteration:  3417charge 0 multiplicity 1
 C        -0.013543        -0.530294         0.219151
 C         1.391269        -0.137443         0.070881
 C         2.555689        -0.344302         1.096234
 C         3.074335         0.775005         0.202040
 C         4.595835         1.226403         0.085735
 O         4.884535         0.146974        -0.900883
 C         3.409182         0.234290        -1.166202
 C         2.207153        -0.649584        -1.274164
 O         1.710036         1.389917         0.159974
 H        -0.346422         0.081021         1.083120
 H        -0.530377        -0.463878        -0.751975
 H        -0.212780        -1.572110         0.413446
 H         2.083903         0.014093         2.018134
 H         3.002055        -1.354113         1.143860
 H         4.664492         2.196915        -0.437008
 H         5.151114         1.178876         1.174594
 H         3.356555         1.020940        -1.984212
 H         1.640014        -0.388609        -2.257661
 H         2.372163        -1.709211        -1.178184
