19
Iteration:  1259
 C        -0.002282        -0.579480         0.281025
 C         1.446682        -0.215927         0.048859
 C         2.703449        -0.378667         1.013987
 C         3.103252         0.869230         0.153758
 C         4.617224         1.145829         0.194782
 O         4.792516         0.064061        -0.737486
 C         3.307222         0.474339        -1.280872
 C         2.159035        -0.578642        -1.350830
 O         1.636545         1.321782         0.101755
 H        -0.199436        -0.178864         1.393269
 H        -0.573686         0.064344        -0.415416
 H        -0.318363        -1.529285         0.257575
 H         2.699873         0.011114         2.047261
 H         3.362840        -1.245791         1.004330
 H         4.828133         2.249346        -0.248316
 H         5.144470         1.073092         1.219491
 H         3.419003         1.284910        -2.044371
 H         1.478508        -0.622044        -2.234410
 H         2.600242        -1.642885        -1.363754
