19
Iteration:  1299charge 0 multiplicity 1
 C         0.038399        -0.562043         0.294023
 C         1.459706        -0.147809        -0.021637
 C         2.496282        -0.400716         1.034934
 C         3.102197         0.728024         0.241756
 C         4.592918         1.152714         0.200824
 O         4.921593         0.280189        -0.909033
 C         3.371185         0.262339        -1.187937
 C         2.091039        -0.659829        -1.379968
 O         1.707406         1.442678         0.171679
 H        -0.241861         0.018397         1.164797
 H        -0.664628        -0.340985        -0.462506
 H         0.150237        -1.743745         0.479956
 H         2.081353        -0.062801         2.016084
 H         3.050419        -1.428484         1.053524
 H         4.690561         2.050191        -0.265423
 H         5.360295         1.108924         1.046686
 H         3.285062         1.089347        -1.855555
 H         1.541848        -0.551739        -2.356056
 H         2.193550        -1.687414        -1.037986
