19
Iteration:  1923
 C         0.038253        -0.520639         0.288747
 C         1.428520        -0.151210         0.104557
 C         2.631184        -0.323890         0.960642
 C         3.102705         0.895564         0.169261
 C         4.603921         1.165076         0.203425
 O         4.730391         0.128589        -0.783427
 C         3.354802         0.376528        -1.241332
 C         2.250381        -0.687478        -1.318952
 O         1.681269         1.279819         0.116642
 H        -0.393095        -0.413519         1.213095
 H        -0.644102         0.092640        -0.310432
 H        -0.232785        -1.497418        -0.079304
 H         2.494443         0.056007         1.983074
 H         3.125168        -1.282575         0.935655
 H         4.892444         2.153260        -0.215418
 H         5.148217         0.849698         1.088373
 H         3.292330         1.047792        -2.198945
 H         1.591416        -0.304883        -2.192856
 H         2.547877        -1.801009        -1.373448
