19
Iteration:  3979
 C         0.001835        -0.530167         0.311964
 C         1.458276        -0.167909         0.072646
 C         2.580828        -0.330742         0.994668
 C         3.103910         0.859076         0.190348
 C         4.578913         1.227325         0.200126
 O         4.741757         0.167649        -0.840686
 C         3.400220         0.282021        -1.228631
 C         2.227821        -0.712461        -1.386868
 O         1.734544         1.337920         0.139460
 H        -0.296837        -0.105917         1.265744
 H        -0.684630        -0.196979        -0.439588
 H        -0.116692        -1.620249         0.332042
 H         2.093964         0.069899         1.970411
 H         3.083140        -1.275917         1.042572
 H         4.923511         2.175794        -0.333763
 H         5.028674         1.014042         1.153459
 H         3.261194         1.072639        -1.997014
 H         1.632598        -0.552854        -2.307461
 H         2.561604        -1.711690        -1.145810
