19
Iteration:  2297
 C        -0.002918        -0.570762         0.331297
 C         1.455926        -0.144507         0.037106
 C         2.586759        -0.377564         0.995985
 C         3.203850         0.768733         0.160737
 C         4.678609         1.237247         0.110657
 O         4.875274         0.100388        -0.700647
 C         3.298452         0.344132        -1.232465
 C         2.026762        -0.561157        -1.328657
 O         1.657995         1.324395         0.089524
 H        -0.276800        -0.237870         1.432219
 H        -0.622552         0.003519        -0.459218
 H         0.027116        -1.548993        -0.061197
 H         2.383716         0.132022         1.921520
 H         3.115378        -1.316337         1.070301
 H         4.791362         2.261829        -0.354705
 H         5.263952         1.077739         1.030437
 H         3.433805         1.055096        -1.985581
 H         1.216722        -0.429482        -2.139907
 H         2.493143        -1.668400        -1.395083
