19
Iteration:  2333charge 0 multiplicity 1
 C         0.063880        -0.503793         0.242102
 C         1.482410        -0.259961         0.005796
 C         2.652286        -0.322624         0.974933
 C         3.115010         0.861217         0.162978
 C         4.584505         1.170023         0.162876
 O         4.679528         0.092279        -0.817440
 C         3.285959         0.326808        -1.186460
 C         2.198675        -0.698790        -1.338773
 O         1.743073         1.447460         0.222064
 H        -0.477815        -0.069956         1.059965
 H        -0.471605        -0.253573        -0.603173
 H        -0.189427        -1.547584         0.533955
 H         2.449167         0.073696         1.970696
 H         3.309715        -1.174012         1.039495
 H         4.838205         2.165512        -0.149488
 H         5.062973         0.992648         1.219286
 H         3.333291         1.032040        -2.049785
 H         1.480573        -0.512046        -2.219028
 H         2.635384        -1.733766        -1.382880
