19
Iteration:  4705
 C        -0.008979        -0.527146         0.326888
 C         1.402796        -0.177648        -0.019047
 C         2.621200        -0.357854         1.003933
 C         3.099005         0.822402         0.163256
 C         4.544059         1.249787         0.233362
 O         4.781570         0.084963        -0.825504
 C         3.367158         0.344535        -1.259346
 C         2.199294        -0.665938        -1.233238
 O         1.752825         1.381814         0.086953
 H        -0.246646        -0.534515         1.341590
 H        -0.675609         0.264196        -0.134998
 H        -0.187853        -1.500834        -0.157358
 H         2.546453         0.065995         2.005391
 H         3.289229        -1.279126         0.814290
 H         4.989911         2.223148        -0.209910
 H         4.881986         0.925596         1.319263
 H         3.394046         0.959189        -2.200465
 H         1.588662        -0.602033        -2.170077
 H         2.500753        -1.763933        -1.208127
