19
Iteration:  1747charge 0 multiplicity 1
 C         0.054193        -0.444540         0.252138
 C         1.420349        -0.149028         0.065259
 C         2.670931        -0.395026         0.988269
 C         3.118652         0.897113         0.150804
 C         4.653176         1.214364         0.209794
 O         4.761540         0.086874        -0.735302
 C         3.334768         0.431420        -1.274573
 C         2.171395        -0.657369        -1.301648
 O         1.621922         1.234470         0.108037
 H        -0.219540        -0.309873         1.336297
 H        -0.653765         0.110974        -0.229196
 H        -0.157324        -1.542912         0.009206
 H         2.387226        -0.282702         2.033693
 H         3.256928        -1.320041         0.952659
 H         5.141652         2.182516        -0.198900
 H         5.093109         1.046461         1.143161
 H         3.247147         1.174377        -2.157628
 H         1.403045        -0.736489        -2.293062
 H         2.607787        -1.744145        -1.464501
