19
Iteration:  4363
 C        -0.077324        -0.595364         0.282354
 C         1.450527        -0.148570         0.027411
 C         2.676412        -0.333844         0.957834
 C         3.096435         0.945184         0.164465
 C         4.566377         1.277850         0.166073
 O         4.751293         0.008221        -0.745911
 C         3.399198         0.289794        -1.194555
 C         2.172772        -0.663545        -1.323016
 O         1.748337         1.381775         0.112409
 H        -0.335471        -0.486120         1.386913
 H        -0.709451        -0.123944        -0.516319
 H        -0.035541        -1.666571         0.012748
 H         2.488454         0.120501         1.895006
 H         3.205160        -1.243863         1.209116
 H         4.747629         2.257681        -0.310873
 H         5.261669         1.228588         0.911216
 H         3.534472         1.098857        -1.971262
 H         1.448015        -0.482154        -2.132649
 H         2.314478        -1.719921        -1.140238
