19
Iteration:  2643charge 0 multiplicity 1
 C        -0.065397        -0.586445         0.334554
 C         1.424773        -0.201180        -0.003817
 C         2.588287        -0.339340         1.013588
 C         3.096180         0.836734         0.230111
 C         4.680916         1.258016         0.132211
 O         4.778840         0.101532        -0.815033
 C         3.383792         0.295735        -1.156814
 C         2.178613        -0.584584        -1.278867
 O         1.744348         1.339118         0.026939
 H        -0.253455        -0.404738         1.439134
 H        -0.781378         0.121798        -0.204898
 H        -0.169477        -1.643767        -0.012262
 H         2.172387        -0.043688         2.047355
 H         3.226841        -1.294939         1.011506
 H         4.877887         2.234658        -0.426895
 H         5.182779         1.172370         1.051255
 H         3.454397         1.171188        -1.742561
 H         1.611268        -0.322165        -2.193062
 H         2.191276        -1.708643        -1.440828
