19
Iteration:  4434
 C         0.029913        -0.423936         0.355305
 C         1.431734        -0.215649         0.045977
 C         2.626534        -0.326266         1.031683
 C         3.030698         0.853102         0.120904
 C         4.574208         1.112375         0.226121
 O         4.774146         0.141214        -0.838847
 C         3.385692         0.398684        -1.223460
 C         2.246527        -0.733216        -1.362628
 O         1.678796         1.323611         0.079288
 H        -0.302434         0.210944         1.151010
 H        -0.539708        -0.309911        -0.577783
 H        -0.187421        -1.471364         0.679969
 H         2.274360        -0.074396         2.055983
 H         3.286167        -1.228075         1.196899
 H         5.012833         2.053853        -0.204917
 H         5.034708         1.003024         1.296733
 H         3.341833         1.148703        -2.012199
 H         1.681591        -0.493514        -2.299147
 H         2.571120        -1.776001        -1.292476
