19
Iteration:  2145charge 0 multiplicity 1
 C         0.028478        -0.473295         0.317999
 C         1.488884        -0.217311         0.017666
 C         2.689161        -0.313065         0.958014
 C         3.113757         0.826240         0.160395
 C         4.620403         1.146414         0.249722
 O         4.698234         0.148157        -0.790083
 C         3.346581         0.388542        -1.229590
 C         2.147751        -0.630265        -1.319526
 O         1.693283         1.250584         0.064023
 H        -0.043384        -0.094098         1.394438
 H        -0.593669         0.054265        -0.420861
 H        -0.271565        -1.470034         0.444979
 H         2.372866         0.063294         1.926506
 H         3.010438        -1.349366         1.007108
 H         4.927061         2.111388        -0.067994
 H         5.180989         0.995230         1.282395
 H         3.339572         1.277177        -2.018962
 H         1.445332        -0.475663        -2.198799
 H         2.473125        -1.740704        -1.419083
