19
Iteration:  3854charge 0 multiplicity 1
 C         0.018260        -0.522826         0.324133
 C         1.515983        -0.172014         0.048465
 C         2.699554        -0.265630         1.014403
 C         3.088283         0.879106         0.020102
 C         4.630328         1.175470         0.261433
 O         4.720019         0.090316        -0.721585
 C         3.311752         0.354713        -1.294385
 C         2.145336        -0.619070        -1.336585
 O         1.696925         1.246228         0.079498
 H        -0.183719        -0.405882         1.400899
 H        -0.724520         0.028550        -0.342641
 H        -0.139942        -1.626268         0.304740
 H         2.361429         0.203227         1.873060
 H         3.226857        -1.201968         1.347125
 H         4.901784         2.192342        -0.090521
 H         5.114347         0.916905         1.316794
 H         3.243608         1.157039        -2.014866
 H         1.521717        -0.449867        -2.248740
 H         2.419688        -1.676594        -1.553517
