19
Iteration:   206charge 0 multiplicity 1
 C         0.051189        -0.621536         0.296464
 C         1.442192        -0.119024         0.008897
 C         2.572938        -0.307160         1.041634
 C         3.154671         0.764184         0.228702
 C         4.603886         1.179211         0.231203
 O         4.764672         0.196869        -0.904810
 C         3.310902         0.316089        -1.156994
 C         2.117763        -0.639675        -1.337495
 O         1.784535         1.360301         0.038216
 H        -0.056021        -0.648603         1.489703
 H        -0.725405        -0.036990        -0.121444
 H        -0.083142        -1.683751        -0.015099
 H         2.234304         0.155878         2.003123
 H         3.047455        -1.308929         1.254774
 H         4.795630         2.214478         0.009635
 H         5.282594         0.866013         1.097619
 H         3.075742         1.213419        -1.896900
 H         1.634699        -0.365712        -2.252754
 H         2.294299        -1.700084        -1.287736
