19
Iteration:  3023charge 0 multiplicity 1
 C        -0.043890        -0.569517         0.243810
 C         1.425339        -0.201986         0.042661
 C         2.634698        -0.334424         1.047180
 C         3.144668         0.867820         0.144190
 C         4.635708         1.250192         0.176654
 O         4.824839         0.114277        -0.832110
 C         3.372092         0.253725        -1.186258
 C         2.132218        -0.625454        -1.257664
 O         1.716279         1.371313         0.101626
 H        -0.527844        -0.330052         1.203861
 H        -0.558140        -0.113246        -0.576783
 H        -0.347915        -1.564235        -0.003585
 H         2.440629         0.088924         2.085467
 H         3.190494        -1.270895         0.926017
 H         4.738305         2.237427        -0.168569
 H         5.119038         1.112894         1.132172
 H         3.417547         0.966442        -1.968743
 H         1.504279        -0.374802        -2.055853
 H         2.088634        -1.724017        -1.240070
