19
Iteration:  1021charge 0 multiplicity 1
 C        -0.075947        -0.601014         0.327432
 C         1.366116        -0.166733         0.015937
 C         2.544934        -0.378742         1.031436
 C         3.121003         0.756392         0.218486
 C         4.569452         1.201243         0.162954
 O         4.857433         0.175420        -0.852258
 C         3.425119         0.374064        -1.203358
 C         2.171972        -0.561669        -1.347224
 O         1.771210         1.300602         0.124745
 H        -0.415277        -0.266306         1.306484
 H        -0.824302        -0.256925        -0.458534
 H        -0.151392        -1.665995         0.236721
 H         2.315311        -0.026565         2.046938
 H         3.183171        -1.255338         1.009091
 H         4.782212         2.225180        -0.351618
 H         5.321974         1.148909         0.984060
 H         3.430976         1.329669        -1.713090
 H         1.644314        -0.279903        -2.213016
 H         2.511981        -1.572045        -1.501782
