19
Iteration:   198
 C         0.094070        -0.589724         0.323951
 C         1.451170        -0.136572         0.024951
 C         2.517056        -0.310446         1.010211
 C         3.088070         0.854278         0.196470
 C         4.688154         1.105331         0.218282
 O         4.737676         0.219924        -0.889610
 C         3.340756         0.318421        -1.158534
 C         2.150476        -0.674463        -1.343684
 O         1.719489         1.338575         0.102201
 H        -0.192564        -0.580352         1.365488
 H        -0.638416         0.034594        -0.268833
 H         0.105432        -1.633482        -0.136472
 H         2.257443         0.059760         2.001465
 H         3.205111        -1.125716         1.039359
 H         4.948084         2.137167        -0.215585
 H         5.212567         0.905902         1.083206
 H         3.277073         1.115001        -1.867036
 H         1.600398        -0.468955        -2.244722
 H         2.277912        -1.696567        -1.247116
