19
Iteration:  2999charge 0 multiplicity 1
 C         0.096226        -0.464706         0.292188
 C         1.479553        -0.106768         0.000303
 C         2.684599        -0.352198         1.000614
 C         3.082808         0.898130         0.139075
 C         4.573652         1.188020         0.189958
 O         4.718898         0.102123        -0.728138
 C         3.307882         0.329793        -1.234659
 C         2.178039        -0.729042        -1.341745
 O         1.700613         1.331094         0.089198
 H         0.002166        -0.391955         1.379094
 H        -0.734306         0.018915        -0.265351
 H        -0.278204        -1.501169        -0.040979
 H         2.372837        -0.010081         1.999785
 H         3.223092        -1.315548         0.808013
 H         4.820607         2.154370        -0.120930
 H         4.988155         0.915016         1.243398
 H         3.441715         1.101474        -1.933464
 H         1.360972        -0.841202        -2.031561
 H         2.583732        -1.734200        -1.192972
