19
Iteration:   958
 C        -0.106622        -0.462867         0.228759
 C         1.432573        -0.278529         0.060987
 C         2.613397        -0.414191         0.980992
 C         3.084410         0.850601         0.126974
 C         4.664991         1.216078         0.228364
 O         4.783155         0.187263        -0.840767
 C         3.348780         0.442045        -1.300102
 C         2.245743        -0.700486        -1.267867
 O         1.712546         1.322518         0.218323
 H        -0.450157        -0.045131         1.077143
 H        -0.565973        -0.063548        -0.712259
 H        -0.297917        -1.565671         0.370228
 H         2.630520        -0.120811         2.095450
 H         3.208415        -1.382372         0.915127
 H         5.048857         2.077446        -0.097905
 H         5.025068         0.901243         1.319853
 H         3.104444         1.155294        -2.076894
 H         1.532572        -0.722043        -2.164185
 H         2.759383        -1.736476        -1.290794
