19
Iteration:    78
 C         0.074736        -0.422754         0.295593
 C         1.522123        -0.245020        -0.087515
 C         2.742799        -0.314367         0.985457
 C         3.034831         0.916954         0.231970
 C         4.553809         1.120502         0.215195
 O         4.786170         0.193365        -0.870476
 C         3.297009         0.348464        -1.191320
 C         2.161515        -0.703171        -1.293344
 O         1.630146         1.250747         0.167154
 H        -0.094721        -0.068466         1.234506
 H        -0.518568         0.182340        -0.406136
 H        -0.266134        -1.475361         0.173659
 H         2.261473        -0.130371         1.935421
 H         3.537253        -1.015803         0.873309
 H         5.013203         2.114154        -0.050492
 H         4.906931         0.756146         1.157918
 H         3.257547         0.934023        -2.016629
 H         1.569897        -0.555657        -2.223545
 H         2.354508        -1.772161        -1.125369
