19
Iteration:  3141
 C         0.053318        -0.566356         0.320992
 C         1.457796        -0.114117        -0.032911
 C         2.560229        -0.328184         1.050683
 C         3.078587         0.804703         0.243520
 C         4.584548         1.257277         0.114764
 O         4.758048         0.027216        -0.803241
 C         3.350451         0.253110        -1.121502
 C         2.226583        -0.618159        -1.347372
 O         1.732758         1.441163         0.073520
 H        -0.138317        -0.365319         1.441090
 H        -0.731868        -0.249043        -0.402111
 H         0.056122        -1.688036         0.046845
 H         2.210544        -0.079188         2.053546
 H         3.026543        -1.258302         0.839762
 H         4.642350         2.114952        -0.556800
 H         5.324726         1.342452         1.082324
 H         3.404875         1.039693        -1.851923
 H         1.641929        -0.382941        -2.193015
 H         2.299469        -1.743615        -1.347660
