19
Iteration:  1940
 C         0.009055        -0.530958         0.222765
 C         1.471559        -0.205943         0.026962
 C         2.781527        -0.374910         0.994659
 C         3.079076         0.932072         0.114676
 C         4.619452         1.225869         0.211016
 O         4.706973         0.042002        -0.767800
 C         3.331767         0.349606        -1.211185
 C         2.146092        -0.639218        -1.281395
 O         1.636045         1.391557         0.133985
 H        -0.307656        -0.473518         1.391407
 H        -0.647603         0.063273        -0.431639
 H        -0.321237        -1.626298        -0.106358
 H         2.499240        -0.291304         2.065062
 H         3.468481        -1.206640         0.626495
 H         5.175492         2.138419        -0.215559
 H         5.130147         1.014994         1.201636
 H         3.330633         1.205235        -1.855405
 H         1.701808        -0.758192        -2.241584
 H         2.539442        -1.595835        -1.048867
