19
Iteration:  2751charge 0 multiplicity 1
 C         0.008188        -0.598392         0.294590
 C         1.376329        -0.171284        -0.017004
 C         2.523269        -0.372679         1.021363
 C         3.126077         0.857148         0.220221
 C         4.637818         1.211841         0.139001
 O         4.831264         0.166025        -0.818695
 C         3.321779         0.347652        -1.174622
 C         2.097992        -0.721329        -1.302427
 O         1.868876         1.439301         0.067503
 H        -0.487112        -0.267653         1.230888
 H        -0.781276        -0.413684        -0.491761
 H        -0.057717        -1.690299         0.539414
 H         2.299765        -0.136576         2.083002
 H         2.749725        -1.380077         0.991651
 H         4.760833         2.283013        -0.065492
 H         5.123871         1.023951         1.072684
 H         3.268891         1.075569        -2.034274
 H         1.598822        -0.593896        -2.271616
 H         2.560020        -1.731088        -1.040928
