19
Iteration:  1129
 C        -0.043073        -0.537656         0.196453
 C         1.455589        -0.119415         0.036823
 C         2.631737        -0.382237         1.000618
 C         3.134143         0.862964         0.245725
 C         4.593052         1.223352         0.195675
 O         4.779287         0.207771        -0.858707
 C         3.344824         0.275846        -1.175971
 C         2.161808        -0.695518        -1.388976
 O         1.739679         1.298832         0.234451
 H        -0.562132         0.051694         1.086430
 H        -0.542486        -0.337159        -0.821292
 H         0.062152        -1.612452         0.330784
 H         2.451446        -0.016519         1.993440
 H         3.149761        -1.302587         0.964786
 H         4.855059         2.244829        -0.189535
 H         5.182294         0.892591         0.943045
 H         3.163444         1.186949        -1.920612
 H         1.684482        -0.488804        -2.311786
 H         2.243758        -1.768491        -1.233222
