19
Iteration:  4310
 C        -0.056016        -0.544463         0.331035
 C         1.392442        -0.164356         0.026346
 C         2.565993        -0.330297         1.080913
 C         3.093116         0.820208         0.149278
 C         4.570472         1.168828         0.210782
 O         4.828418         0.226034        -0.852398
 C         3.327421         0.271149        -1.234070
 C         2.243103        -0.744421        -1.332988
 O         1.810589         1.372042         0.047886
 H        -0.368699         0.010274         1.265144
 H        -0.720556        -0.021190        -0.361282
 H        -0.281061        -1.583566         0.249810
 H         2.353538         0.103813         2.067332
 H         3.126937        -1.254029         1.143877
 H         4.826989         2.180915        -0.137651
 H         5.191419         1.014467         1.124887
 H         3.229223         1.198466        -1.761727
 H         1.573971        -0.632060        -2.147311
 H         2.537266        -1.823436        -1.181042
