19
Iteration:  3454charge 0 multiplicity 1
 C         0.023557        -0.547319         0.285466
 C         1.437684        -0.201670         0.001218
 C         2.637340        -0.322257         1.046763
 C         3.069636         0.830387         0.154231
 C         4.563476         1.175473         0.171860
 O         4.834734         0.140359        -0.791692
 C         3.318581         0.347799        -1.213013
 C         2.115564        -0.680416        -1.238266
 O         1.748120         1.377805         0.019683
 H        -0.275042         0.011555         1.170384
 H        -0.583862         0.002432        -0.455563
 H        -0.186436        -1.655151         0.461829
 H         2.351062         0.007366         2.045236
 H         3.236686        -1.258394         1.180680
 H         4.878518         2.235098        -0.031911
 H         5.121433         0.854891         1.032970
 H         3.321739         1.108282        -1.923027
 H         1.716183        -0.607008        -2.201230
 H         2.430858        -1.730588        -1.258731
