19
Iteration:  3468
 C         0.043166        -0.473611         0.344966
 C         1.470768        -0.196269         0.036176
 C         2.570614        -0.285894         0.993275
 C         3.072299         0.879271         0.140206
 C         4.561746         1.186502         0.263227
 O         4.745972         0.085220        -0.838655
 C         3.386987         0.287345        -1.247052
 C         2.299394        -0.723117        -1.384435
 O         1.677953         1.369372         0.117415
 H        -0.264674        -0.151618         1.396364
 H        -0.706902        -0.107573        -0.377007
 H        -0.075194        -1.559928         0.312029
 H         2.276545         0.188338         2.037584
 H         3.109511        -1.200053         0.870837
 H         4.899273         2.102700        -0.209597
 H         4.949812         1.145658         1.248310
 H         3.356135         1.035169        -2.090335
 H         1.503886        -0.576449        -2.139340
 H         2.635940        -1.759364        -1.096531
