19
Iteration:  4990charge 0 multiplicity 1
 C        -0.003031        -0.545778         0.169206
 C         1.433011        -0.134157         0.099558
 C         2.637733        -0.344074         1.052647
 C         3.105805         0.818546         0.086479
 C         4.593864         1.262669         0.166613
 O         4.761406         0.067396        -0.777220
 C         3.429966         0.306161        -1.224487
 C         2.154491        -0.604557        -1.263869
 O         1.711247         1.288197         0.168114
 H        -0.511394         0.183670         0.820928
 H        -0.543567        -0.429084        -0.834229
 H        -0.094416        -1.577389         0.755772
 H         2.511872         0.182080         1.971113
 H         3.221389        -1.285332         0.810187
 H         4.877226         2.090627        -0.435177
 H         5.124228         1.237954         1.126422
 H         3.439404         1.100943        -1.942686
 H         1.362592        -0.152373        -2.018768
 H         2.156672        -1.670663        -1.363652
