19
Iteration:   565charge 0 multiplicity 1
 C        -0.014755        -0.519748         0.364818
 C         1.451976        -0.140093         0.087440
 C         2.712954        -0.351862         0.859251
 C         3.084729         0.900881         0.116817
 C         4.586929         1.119359         0.323138
 O         4.694961         0.122160        -0.861420
 C         3.289228         0.453287        -1.181650
 C         2.261095        -0.615410        -1.351376
 O         1.688324         1.261415         0.117621
 H        -0.395515        -0.469142         1.440504
 H        -0.655482         0.060400        -0.299027
 H        -0.004836        -1.562020        -0.066966
 H         2.762530        -0.178957         1.940459
 H         3.308220        -1.233011         0.602063
 H         5.016920         2.059977         0.098576
 H         5.054012         0.551991         1.236048
 H         3.202726         1.260869        -2.035969
 H         1.664418        -0.658737        -2.301586
 H         2.767490        -1.639011        -1.162569
