19
Iteration:  1296charge 0 multiplicity 1
 C         0.071606        -0.563086         0.286979
 C         1.451351        -0.140574        -0.031922
 C         2.484741        -0.418625         1.043903
 C         3.108933         0.763756         0.251418
 C         4.575347         1.141690         0.203673
 O         4.925063         0.270441        -0.910742
 C         3.364414         0.250042        -1.170185
 C         2.093562        -0.667642        -1.377237
 O         1.706701         1.439410         0.165817
 H        -0.161741        -0.007515         1.146822
 H        -0.811749        -0.338094        -0.427361
 H         0.120589        -1.755847         0.485131
 H         2.205437        -0.066244         2.026935
 H         3.077140        -1.332210         1.014286
 H         4.793042         2.213725        -0.341404
 H         5.229900         1.026218         1.025543
 H         3.226445         1.152592        -1.923922
 H         1.600405        -0.462221        -2.301216
 H         2.144576        -1.687273        -1.094649
