19
Iteration:   615
 C        -0.076835        -0.609008         0.167104
 C         1.436086        -0.068499         0.081358
 C         2.592289        -0.488605         1.142628
 C         3.207244         0.665930         0.324315
 C         4.585748         1.282200         0.097947
 O         4.850297         0.225520        -0.931508
 C         3.338670         0.314346        -1.129855
 C         2.100974        -0.557236        -1.359050
 O         1.786462         1.323142         0.133858
 H        -0.587189        -0.221471         1.166561
 H        -0.659172        -0.169961        -0.620271
 H        -0.067664        -1.643445         0.100361
 H         2.367617        -0.101747         2.149078
 H         3.093314        -1.468802         1.106514
 H         4.535956         2.329178        -0.380156
 H         5.418346         1.217999         0.806548
 H         3.226597         1.177772        -1.734454
 H         1.432433        -0.290537        -2.164845
 H         2.176738        -1.595463        -1.386220
