19
Iteration:  4669charge 0 multiplicity 1
 C         0.003765        -0.507402         0.320962
 C         1.422829        -0.098764        -0.018606
 C         2.528796        -0.389035         1.076155
 C         3.182055         0.765518         0.244492
 C         4.621135         1.262753         0.152285
 O         4.828896         0.114789        -0.856568
 C         3.368890         0.324496        -1.138371
 C         2.130344        -0.677959        -1.333562
 O         1.674076         1.331583         0.019144
 H        -0.225306        -0.287814         1.438739
 H        -0.737134        -0.115494        -0.344423
 H        -0.024046        -1.562283         0.157628
 H         2.241290         0.033352         2.176753
 H         3.172711        -1.235911         1.331525
 H         5.010890         2.340831        -0.217486
 H         5.290786         0.999775         0.952705
 H         3.338182         1.125632        -1.875421
 H         1.646157        -0.293357        -2.232401
 H         2.469633        -1.821476        -1.461791
