19
Iteration:   503charge 0 multiplicity 1
 C         0.008122        -0.591785         0.262502
 C         1.419429        -0.158550         0.056367
 C         2.588807        -0.529383         0.956516
 C         3.123527         0.760020         0.165096
 C         4.602787         1.316515         0.093595
 O         4.781039         0.118260        -0.758591
 C         3.379643         0.340116        -1.175832
 C         2.126055        -0.492097        -1.304013
 O         1.763195         1.370453         0.180346
 H        -0.415155        -0.188965         1.070863
 H        -0.711377        -0.433327        -0.599574
 H        -0.017271        -1.723986         0.497178
 H         2.616672        -0.215573         2.002492
 H         3.055135        -1.500513         0.731577
 H         4.733095         2.303779        -0.488805
 H         5.279759         1.254289         0.855171
 H         3.343836         1.230712        -1.713078
 H         1.516082        -0.208213        -2.200576
 H         2.239937        -1.592719        -1.374907
