19
Iteration:  4239
 C        -0.009737        -0.515420         0.238207
 C         1.501534        -0.207450         0.085893
 C         2.673301        -0.312720         1.008853
 C         3.122892         0.871611         0.168135
 C         4.580135         1.209980         0.113163
 O         4.726554         0.075453        -0.741400
 C         3.357019         0.381320        -1.222317
 C         2.204990        -0.640440        -1.305771
 O         1.664917         1.268693         0.101964
 H        -0.192877         0.120631         1.104295
 H        -0.731137        -0.139322        -0.523377
 H        -0.184955        -1.608980         0.446273
 H         2.432053         0.223909         1.971888
 H         3.224220        -1.247717         1.060768
 H         4.904470         2.148014        -0.317048
 H         5.095964         1.059637         1.064185
 H         3.504574         1.134335        -2.056039
 H         1.563146        -0.450360        -2.239700
 H         2.284206        -1.712535        -1.140101
