19
Iteration:  4736charge 0 multiplicity 1
 C         0.009223        -0.486266         0.241683
 C         1.443131        -0.225511        -0.016803
 C         2.677919        -0.331823         0.993811
 C         3.083952         0.854060         0.196841
 C         4.644278         1.257483         0.118401
 O         4.798162         0.086070        -0.760525
 C         3.352833         0.307366        -1.179730
 C         2.112351        -0.636804        -1.267704
 O         1.662805         1.290225         0.153050
 H        -0.335701        -0.279988         1.247255
 H        -0.389482         0.184279        -0.535991
 H        -0.086694        -1.491524        -0.096020
 H         2.403187         0.119438         2.033827
 H         3.355186        -1.206892         1.003305
 H         4.993849         2.272892        -0.319941
 H         5.052443         1.254980         1.123462
 H         3.422452         0.938963        -2.057696
 H         1.499148        -0.403689        -2.142611
 H         2.150557        -1.794689        -1.395765
