19
Iteration:  1693
 C         0.047889        -0.560626         0.243059
 C         1.381573        -0.025776         0.085076
 C         2.473020        -0.449685         1.038487
 C         3.170124         0.701553         0.222808
 C         4.644597         1.254478         0.140042
 O         4.817039         0.243738        -0.847201
 C         3.345278         0.244294        -1.202341
 C         2.128362        -0.626468        -1.286974
 O         1.768071         1.325365         0.113990
 H        -0.552145        -0.063614         1.111379
 H        -0.420604        -0.267531        -0.750440
 H         0.204020        -1.742329         0.295654
 H         2.278165        -0.053896         2.033106
 H         2.890467        -1.455736         1.088221
 H         4.629799         2.292800        -0.412700
 H         5.285583         1.059549         0.986759
 H         3.392312         1.247326        -1.755824
 H         1.687718        -0.320554        -2.336982
 H         2.282058        -1.770788        -1.234474
