19
Iteration:  3549charge 0 multiplicity 1
 C        -0.035274        -0.550793         0.241180
 C         1.456444        -0.200715         0.037429
 C         2.558618        -0.347541         1.022733
 C         3.104456         0.840161         0.201621
 C         4.606664         1.257623         0.115476
 O         4.891778         0.093838        -0.804535
 C         3.353457         0.348727        -1.213001
 C         2.139982        -0.688711        -1.291860
 O         1.706112         1.383308         0.147841
 H        -0.511259        -0.166298         1.103049
 H        -0.575576        -0.112290        -0.617582
 H        -0.177744        -1.650035         0.301711
 H         2.397704         0.066062         1.950177
 H         3.235749        -1.228575         1.190251
 H         4.644679         2.240793        -0.262108
 H         5.296846         1.147133         1.037559
 H         3.461295         1.063857        -2.085190
 H         1.527394        -0.690352        -2.221685
 H         2.252832        -1.727008        -1.077752
