19
Iteration:  2261
 C         0.040675        -0.504865         0.379053
 C         1.400099        -0.142145         0.016800
 C         2.610400        -0.394164         0.926293
 C         3.119423         0.766509         0.202549
 C         4.534452         1.215472         0.201244
 O         4.816012         0.158689        -0.784411
 C         3.370831         0.256951        -1.213834
 C         2.130487        -0.638379        -1.309039
 O         1.760182         1.430341         0.035630
 H        -0.212462        -0.601123         1.415055
 H        -0.809647         0.046808        -0.147045
 H        -0.103189        -1.565856         0.120058
 H         2.288337        -0.142449         1.955579
 H         3.058553        -1.404999         0.956046
 H         4.854941         2.238928        -0.078526
 H         5.197985         0.838975         0.877076
 H         3.356150         1.085859        -1.876025
 H         1.637841        -0.458983        -2.239322
 H         2.365403        -1.685750        -1.269101
