19
Iteration:  2323charge 0 multiplicity 1
 C        -0.031548        -0.525227         0.251903
 C         1.503313        -0.211649         0.031386
 C         2.714607        -0.307945         0.961276
 C         3.100186         0.908455         0.192398
 C         4.596546         1.233767         0.164766
 O         4.661515         0.027428        -0.821605
 C         3.337857         0.298609        -1.145223
 C         2.234357        -0.643467        -1.294233
 O         1.676903         1.363597         0.157330
 H        -0.242611         0.032152         1.083108
 H        -0.493404        -0.136026        -0.566677
 H        -0.170609        -1.638928         0.271137
 H         2.566008        -0.057334         2.026488
 H         3.364580        -1.180794         0.789627
 H         4.976688         2.153444        -0.241679
 H         5.192080         0.817913         1.062616
 H         3.223050         1.087758        -1.995190
 H         1.611943        -0.204438        -2.087045
 H         2.413972        -1.681069        -1.483877
