19
Iteration:  1244charge 0 multiplicity 1
 C         0.075549        -0.493151         0.268152
 C         1.500613        -0.220194         0.006041
 C         2.674605        -0.285730         0.929767
 C         3.086241         0.939440         0.148390
 C         4.601650         1.230129         0.155193
 O         4.784967         0.041450        -0.733126
 C         3.302792         0.333503        -1.216212
 C         2.171884        -0.595985        -1.356441
 O         1.604959         1.267912         0.232429
 H        -0.267000        -0.387190         1.285120
 H        -0.614779        -0.004824        -0.365106
 H        -0.148487        -1.643729         0.052680
 H         2.245756        -0.122850         1.941609
 H         3.366074        -1.231047         0.855155
 H         5.031703         2.012539        -0.338176
 H         5.099848         0.924320         1.145485
 H         3.394060         1.035637        -2.004802
 H         1.531350        -0.297216        -2.244285
 H         2.485859        -1.649277        -1.356183
