19
Iteration:  1263charge 0 multiplicity 1
 C         0.006145        -0.564200         0.311872
 C         1.439393        -0.213565         0.072833
 C         2.678103        -0.402444         0.997077
 C         3.132414         0.860883         0.163824
 C         4.623996         1.151935         0.249341
 O         4.759753         0.103427        -0.758440
 C         3.330584         0.450214        -1.274153
 C         2.153742        -0.579434        -1.365034
 O         1.670043         1.321825         0.065386
 H        -0.330207        -0.285127         1.282033
 H        -0.628370         0.012246        -0.476684
 H        -0.403132        -1.685427         0.309123
 H         2.674116         0.029868         1.995692
 H         3.371262        -1.225557         1.058678
 H         4.848570         2.156339        -0.329675
 H         5.180769         1.092915         1.117369
 H         3.323148         1.330628        -2.054045
 H         1.538786        -0.605100        -2.231802
 H         2.499932        -1.585684        -1.277784
