19
Iteration:  2655
 C         0.061350        -0.588523         0.277122
 C         1.418230        -0.112855        -0.013906
 C         2.486597        -0.372256         1.012167
 C         3.175813         0.804340         0.199478
 C         4.630011         1.269897         0.139482
 O         4.814194         0.098849        -0.749693
 C         3.390510         0.334953        -1.200670
 C         2.088856        -0.660804        -1.342221
 O         1.732814         1.361551         0.128042
 H        -0.130215        -0.420803         1.419212
 H        -0.723001        -0.022921        -0.315112
 H        -0.247088        -1.619762         0.203109
 H         2.270662         0.093967         2.065382
 H         3.141111        -1.358050         1.152788
 H         4.718967         2.221657        -0.528063
 H         5.447470         1.280391         0.787068
 H         3.226599         0.856909        -2.083927
 H         1.510059        -0.255917        -2.177603
 H         2.346419        -1.757056        -1.258716
