19
Iteration:  4890
 C         0.014461        -0.511905         0.218469
 C         1.447467        -0.192895         0.079023
 C         2.639208        -0.358976         1.064949
 C         3.119670         0.843461         0.096539
 C         4.600727         1.239952         0.148194
 O         4.838724         0.131767        -0.747560
 C         3.360882         0.281856        -1.214238
 C         2.075470        -0.649702        -1.278661
 O         1.690584         1.335251         0.096893
 H        -0.374669        -0.532259         1.390444
 H        -0.527805         0.273823        -0.439575
 H        -0.070139        -1.554801        -0.275213
 H         2.648434         0.095324         2.084596
 H         3.134978        -1.423653         1.019156
 H         4.887123         2.209593        -0.316977
 H         5.053101         1.019346         1.083112
 H         3.373509         1.124692        -1.931564
 H         1.483315        -0.271869        -2.221752
 H         2.156401        -1.753219        -1.177770
