19
Iteration:  2909
 C        -0.114049        -0.517428         0.209079
 C         1.498866        -0.157013        -0.004768
 C         2.667238        -0.363447         1.032391
 C         3.136207         0.884802         0.196893
 C         4.662721         1.214657         0.128491
 O         4.734214         0.093895        -0.768373
 C         3.304187         0.352706        -1.213545
 C         2.206009        -0.724710        -1.345626
 O         1.705715         1.367933         0.192788
 H        -0.457730         0.103696         1.059068
 H        -0.584964        -0.423315        -0.781751
 H        -0.162968        -1.599104         0.584282
 H         2.365754         0.128532         1.890861
 H         3.316508        -1.253983         1.023770
 H         4.784545         2.159298        -0.317384
 H         5.281761         1.104673         1.043259
 H         3.212704         1.066256        -1.975833
 H         1.453163        -0.891236        -2.160067
 H         2.743374        -1.575594        -1.016589
