19
Iteration:  3074
 C         0.011709        -0.473677         0.262522
 C         1.411326        -0.254459        -0.025790
 C         2.573949        -0.406762         1.022824
 C         3.100177         0.862597         0.214394
 C         4.572966         1.189065         0.178473
 O         4.765134         0.139390        -0.852842
 C         3.313040         0.343460        -1.181688
 C         2.204990        -0.699552        -1.239168
 O         1.803096         1.412258         0.090202
 H        -0.441886         0.160910         1.054207
 H        -0.614292        -0.433551        -0.687002
 H        -0.094539        -1.546333         0.732904
 H         2.412644        -0.168043         2.056685
 H         3.260739        -1.230910         0.810079
 H         4.814365         2.213407        -0.252412
 H         5.197557         1.100019         1.188248
 H         3.211141         1.204614        -1.922775
 H         1.772157        -0.599578        -2.280569
 H         2.459434        -1.771123        -1.105180
