19
Iteration:  1251charge 0 multiplicity 1
 C         0.018340        -0.542384         0.272733
 C         1.486332        -0.224807         0.006749
 C         2.727612        -0.312534         1.000767
 C         3.063605         0.884969         0.137239
 C         4.603031         1.179649         0.143350
 O         4.824198         0.021906        -0.720742
 C         3.270301         0.435213        -1.248132
 C         2.171939        -0.597551        -1.342599
 O         1.598174         1.297586         0.182598
 H        -0.088896        -0.167570         1.299224
 H        -0.653968         0.159435        -0.394249
 H        -0.176727        -1.639301         0.097731
 H         2.451127        -0.078819         2.023274
 H         3.244878        -1.202966         0.830833
 H         4.948546         2.267473        -0.182407
 H         5.006648         0.933247         1.060684
 H         3.584596         1.209519        -2.074601
 H         1.488764        -0.430607        -2.130829
 H         2.664421        -1.556527        -1.383425
