19
Iteration:  4415
 C        -0.082090        -0.540874         0.342660
 C         1.445252        -0.208517        -0.002835
 C         2.604044        -0.281941         1.005663
 C         3.194071         0.842081         0.193523
 C         4.649394         1.264954         0.221193
 O         4.780474         0.063464        -0.824889
 C         3.376205         0.300383        -1.174692
 C         2.161425        -0.602252        -1.311824
 O         1.672009         1.302566         0.013866
 H        -0.233344         0.022630         1.213394
 H        -0.629116        -0.298276        -0.576532
 H        -0.186788        -1.602402         0.652090
 H         2.502217        -0.080049         2.056870
 H         3.283585        -1.188712         0.933740
 H         4.838361         2.328004        -0.137577
 H         5.090391         1.002732         1.200390
 H         3.456887         1.101415        -1.947763
 H         1.457887        -0.290649        -2.218730
 H         2.326257        -1.658983        -1.315624
