19
Iteration:   360
 C         0.087099        -0.536984         0.299365
 C         1.508060        -0.243055        -0.019298
 C         2.705191        -0.356453         0.977605
 C         3.077898         0.894521         0.144000
 C         4.662766         1.142288         0.212328
 O         4.778221         0.129005        -0.802170
 C         3.300382         0.369886        -1.248104
 C         2.153131        -0.617708        -1.337043
 O         1.567765         1.357925         0.208976
 H        -0.103081        -0.124014         1.249734
 H        -0.570564        -0.015683        -0.399886
 H        -0.321930        -1.615462         0.331356
 H         2.518054        -0.067006         2.041112
 H         3.240979        -1.304278         0.866527
 H         4.869221         2.180794        -0.236421
 H         5.172997         0.936253         1.145072
 H         3.209173         1.017281        -2.199023
 H         1.513237        -0.450677        -2.193118
 H         2.326254        -1.694702        -1.285293
