19
Iteration:   830charge 0 multiplicity 1
 C         0.023331        -0.552648         0.294633
 C         1.399514        -0.134746         0.050838
 C         2.519196        -0.408947         1.019107
 C         3.121069         0.840472         0.185383
 C         4.624413         1.161995         0.148214
 O         4.844276         0.263105        -0.908107
 C         3.415976         0.248361        -1.165847
 C         2.193253        -0.622624        -1.306272
 O         1.677137         1.322832         0.163048
 H        -0.374284        -0.120606         1.226287
 H        -0.677486        -0.254122        -0.529907
 H         0.002338        -1.737270         0.343796
 H         1.989703        -0.060085         1.911086
 H         3.032577        -1.348552         1.081825
 H         4.927434         2.244844        -0.284812
 H         5.271837         0.903982         1.056699
 H         3.231018         1.177399        -1.860394
 H         1.807123        -0.368052        -2.333619
 H         2.216171        -1.709145        -1.230194
