19
Iteration:  3368
 C         0.005910        -0.459771         0.280907
 C         1.439628        -0.188472         0.033705
 C         2.646618        -0.295903         1.001268
 C         3.033026         0.897493         0.188302
 C         4.578926         1.177171         0.171155
 O         4.871459         0.113644        -0.794459
 C         3.422967         0.326162        -1.213933
 C         2.108423        -0.696800        -1.251521
 O         1.653623         1.296036         0.072224
 H        -0.299732        -0.049048         1.208169
 H        -0.557167        -0.069315        -0.564272
 H        -0.207118        -1.553086         0.215063
 H         2.572177        -0.049427         2.081663
 H         3.338757        -1.193611         0.876986
 H         4.682508         2.256227        -0.119379
 H         5.144360         0.842646         0.917102
 H         3.499197         1.006022        -2.081756
 H         1.581589        -0.561226        -2.159400
 H         2.343531        -1.820062        -1.162992
