19
Iteration:  4616charge 0 multiplicity 1
 C         0.019207        -0.505980         0.232157
 C         1.441289        -0.100794        -0.006746
 C         2.610611        -0.341239         0.947464
 C         3.127264         0.897842         0.170718
 C         4.552401         1.227181         0.191743
 O         4.723055         0.072791        -0.823868
 C         3.343960         0.297911        -1.201974
 C         2.176839        -0.656403        -1.265461
 O         1.740552         1.298025         0.233010
 H        -0.416875         0.352811         0.805898
 H        -0.405892        -0.526075        -0.766867
 H        -0.045595        -1.470487         0.627263
 H         2.572951        -0.089134         2.038550
 H         3.282923        -1.186028         0.806282
 H         4.958106         2.090859        -0.409375
 H         5.194451         1.214985         1.074101
 H         3.388182         0.909439        -2.128217
 H         1.767515        -0.784675        -2.225142
 H         2.348313        -1.784412        -1.004834
