19
Iteration:  4009
 C         0.036181        -0.623473         0.244908
 C         1.470515        -0.156082         0.087429
 C         2.574784        -0.353667         1.011405
 C         3.130457         0.831428         0.255373
 C         4.579756         1.244695         0.060831
 O         4.828831         0.109394        -0.722053
 C         3.417566         0.273047        -1.219197
 C         2.061078        -0.536844        -1.301481
 O         1.718140         1.330651         0.052495
 H        -0.338071        -0.300216         1.291577
 H        -0.760109        -0.185946        -0.368868
 H         0.035328        -1.718744         0.154904
 H         2.146301        -0.132048         2.033767
 H         3.164000        -1.200589         0.935428
 H         4.695278         2.146762        -0.589504
 H         5.235329         1.464792         0.966772
 H         3.507840         1.151049        -1.822673
 H         1.381638        -0.248508        -2.047257
 H         2.267964        -1.686895        -1.337657
