19
Iteration:  3857charge 0 multiplicity 1
 C         0.015018        -0.517125         0.299141
 C         1.510841        -0.186400         0.067634
 C         2.714519        -0.261358         0.992461
 C         3.114364         0.902157         0.040271
 C         4.613580         1.175377         0.272647
 O         4.727411         0.086328        -0.733334
 C         3.315294         0.350125        -1.286230
 C         2.109985        -0.636396        -1.348753
 O         1.692150         1.249355         0.101165
 H        -0.126778        -0.386029         1.379918
 H        -0.669748        -0.065980        -0.344661
 H        -0.156086        -1.558106         0.266550
 H         2.347641         0.252771         1.926099
 H         3.177604        -1.133996         1.307327
 H         4.859745         2.161081        -0.159685
 H         5.047891         0.954690         1.248666
 H         3.384651         1.127116        -2.064239
 H         1.515470        -0.449075        -2.176223
 H         2.508735        -1.711160        -1.544125
