19
Iteration:  4695
 C        -0.000673        -0.521161         0.353205
 C         1.432752        -0.161849        -0.004947
 C         2.565383        -0.371122         0.938799
 C         3.086955         0.866656         0.131808
 C         4.546272         1.203525         0.199099
 O         4.815366         0.114489        -0.832731
 C         3.417137         0.317844        -1.180247
 C         2.168308        -0.697323        -1.287244
 O         1.743678         1.392014         0.107322
 H        -0.133187        -0.595856         1.388407
 H        -0.797182         0.117667        -0.113563
 H        -0.282733        -1.542501        -0.033043
 H         2.178418         0.028180         1.836006
 H         3.139644        -1.276626         1.268071
 H         4.870786         2.216734        -0.180847
 H         5.230947         0.907286         1.097136
 H         3.359159         1.132226        -1.974287
 H         1.681868        -0.558709        -2.268180
 H         2.542040        -1.686807        -1.050185
