19
Iteration:  1120charge 0 multiplicity 1
 C         0.063141        -0.569512         0.202455
 C         1.441462        -0.169130         0.009615
 C         2.571660        -0.342704         0.986925
 C         3.134101         0.787628         0.270058
 C         4.634194         1.281283         0.141660
 O         4.812615         0.190289        -0.871024
 C         3.397687         0.205885        -1.124306
 C         2.085502        -0.628906        -1.409355
 O         1.717021         1.372109         0.239752
 H        -0.435510        -0.169704         1.060993
 H        -0.556264        -0.239997        -0.735385
 H        -0.172429        -1.674769         0.380619
 H         2.139491        -0.251972         2.006974
 H         3.128472        -1.270499         0.982475
 H         4.699817         2.321462        -0.185772
 H         5.144594         1.059836         1.059463
 H         3.330731         1.138120        -1.708740
 H         1.524494        -0.518687        -2.277067
 H         2.123169        -1.681176        -1.233436
