19
Iteration:  4723
 C         0.035164        -0.478065         0.222401
 C         1.496124        -0.140192         0.141144
 C         2.731832        -0.358476         0.956713
 C         3.105539         0.906807         0.109403
 C         4.582147         1.202806         0.216301
 O         4.746738         0.133424        -0.726817
 C         3.347648         0.294450        -1.205082
 C         2.080034        -0.717008        -1.344496
 O         1.684282         1.306016         0.083162
 H        -0.462971        -0.520032         1.285318
 H        -0.607006         0.193378        -0.327984
 H        -0.268659        -1.436744        -0.129409
 H         2.501651        -0.035656         2.087808
 H         3.338915        -1.226602         1.023675
 H         4.870775         2.160264        -0.285797
 H         5.187871         0.909001         0.998163
 H         3.327803         1.084670        -1.933189
 H         1.526610        -0.406606        -2.203976
 H         2.472326        -1.794395        -1.198259
