19
Iteration:  4739charge 0 multiplicity 1
 C        -0.000004        -0.496200         0.231289
 C         1.452537        -0.232871        -0.020768
 C         2.643972        -0.303088         1.024373
 C         3.097138         0.858361         0.189896
 C         4.649685         1.270831         0.121913
 O         4.806976         0.073873        -0.774164
 C         3.342837         0.286038        -1.195387
 C         2.134035        -0.622802        -1.275835
 O         1.670258         1.289042         0.164898
 H        -0.233261        -0.266647         1.213316
 H        -0.463585         0.149199        -0.554631
 H        -0.264275        -1.590888        -0.006287
 H         2.411646        -0.089255         2.052918
 H         3.306253        -1.243891         1.014190
 H         4.930640         2.254716        -0.369196
 H         5.113184         1.345254         1.205033
 H         3.387721         0.978621        -2.090356
 H         1.488978        -0.288418        -2.148318
 H         2.171003        -1.701888        -1.297135
