19
Iteration:  3106charge 0 multiplicity 1
 C        -0.021296        -0.481988         0.296028
 C         1.408509        -0.168423         0.010891
 C         2.601221        -0.278945         1.021584
 C         3.163714         0.811667         0.066336
 C         4.711750         1.205077         0.285619
 O         4.776512         0.160654        -0.816886
 C         3.339110         0.346405        -1.258656
 C         2.153589        -0.686642        -1.294033
 O         1.680826         1.240526         0.108677
 H        -0.436167         0.103174         1.102919
 H        -0.693787        -0.186511        -0.562512
 H        -0.050163        -1.599360         0.633629
 H         2.542367         0.056700         2.013813
 H         3.218579        -1.197476         1.112003
 H         5.110232         2.244434        -0.004533
 H         4.985761         0.924722         1.361726
 H         3.196550         0.914570        -2.250836
 H         1.674583        -0.376604        -2.308417
 H         2.182464        -1.787918        -1.130771
