19
Iteration:  2480charge 0 multiplicity 1
 C         0.000746        -0.586749         0.344799
 C         1.393537        -0.164655        -0.023307
 C         2.593689        -0.260454         1.033757
 C         3.145693         0.829125         0.236737
 C         4.573851         1.206268         0.169544
 O         4.801302         0.106223        -0.870557
 C         3.445065         0.326234        -1.129625
 C         2.119103        -0.596758        -1.387583
 O         1.747680         1.289507         0.090462
 H        -0.221971        -0.268895         1.356513
 H        -0.847380        -0.156376        -0.261488
 H        -0.140823        -1.610251         0.179867
 H         2.177663         0.163759         2.008091
 H         3.169504        -1.226629         1.335948
 H         4.939019         2.240594        -0.164370
 H         4.985429         0.856646         1.084885
 H         3.333404         1.080841        -1.997024
 H         1.548499        -0.300645        -2.245313
 H         2.344194        -1.666624        -1.577869
