19
Iteration:   382
 C        -0.010970        -0.462215         0.273681
 C         1.477728        -0.204457         0.101076
 C         2.781316        -0.378766         0.907130
 C         3.087194         0.867255         0.168265
 C         4.629138         1.300678         0.134859
 O         4.724915         0.094186        -0.749536
 C         3.296593         0.363256        -1.185752
 C         2.138810        -0.625930        -1.310968
 O         1.696188         1.211676         0.171617
 H        -0.525091        -0.212617         1.134899
 H        -0.508898         0.143382        -0.480901
 H        -0.313397        -1.538628        -0.033262
 H         2.501621        -0.288090         1.972261
 H         3.424250        -1.224816         0.655574
 H         5.014698         2.273521        -0.375742
 H         5.082540         1.027909         1.067369
 H         3.242817         1.128319        -2.007437
 H         1.523106        -0.342106        -2.167623
 H         2.349002        -1.700722        -1.395815
