19
Iteration:   453charge 0 multiplicity 1
 C        -0.000216        -0.517504         0.286393
 C         1.488519        -0.233469         0.116643
 C         2.565431        -0.387253         1.070908
 C         3.126858         0.847791         0.204439
 C         4.615167         1.064737         0.229996
 O         4.790999         0.268434        -0.997749
 C         3.271219         0.449024        -1.245710
 C         2.230870        -0.651498        -1.276185
 O         1.711017         1.290351         0.110564
 H        -0.607269         0.025983         1.184362
 H        -0.491135        -0.083034        -0.605323
 H        -0.277919        -1.534350         0.251322
 H         2.339005        -0.106690         2.102503
 H         3.121037        -1.343258         1.041691
 H         4.974972         2.083540         0.036181
 H         5.095888         0.576883         1.180849
 H         3.231342         1.363527        -1.996039
 H         1.611133        -0.660995        -2.168955
 H         2.724214        -1.638426        -1.301477
