19
Iteration:  4204charge 0 multiplicity 1
 C         0.039185        -0.667349         0.360935
 C         1.356546        -0.124909        -0.011959
 C         2.542061        -0.337350         0.960943
 C         3.155727         0.891656         0.163213
 C         4.591381         1.194987         0.177370
 O         4.804522         0.152233        -0.772614
 C         3.404113         0.304543        -1.201725
 C         2.106613        -0.680195        -1.283041
 O         1.779447         1.447750         0.017412
 H        -0.125606        -0.476536         1.433651
 H        -0.753920        -0.257781        -0.206961
 H        -0.028049        -1.741559         0.357114
 H         2.417473        -0.008910         2.056598
 H         2.850813        -1.386285         1.028315
 H         4.880390         2.175921        -0.146802
 H         5.074249         0.890097         1.183583
 H         3.349542         1.046932        -1.989845
 H         1.708484        -0.485202        -2.217949
 H         2.265136        -1.841301        -1.237137
