19
Iteration:  3340charge 0 multiplicity 1
 C         0.010201        -0.579179         0.405508
 C         1.442006        -0.114941         0.019363
 C         2.525722        -0.329151         1.047316
 C         3.104337         0.842788         0.157816
 C         4.621026         1.317686         0.203280
 O         4.813360         0.119105        -0.762037
 C         3.358027         0.241157        -1.209343
 C         2.116043        -0.660627        -1.389435
 O         1.784942         1.337171        -0.003812
 H        -0.331562        -0.455843         1.491540
 H        -0.696102        -0.007527        -0.259714
 H        -0.035817        -1.602109         0.034167
 H         2.501001         0.089811         2.071748
 H         2.863956        -1.329343         1.300238
 H         4.845578         2.336039        -0.105212
 H         5.220631         0.747922         1.063857
 H         3.441023         0.882868        -2.130130
 H         1.682634        -0.359903        -2.390497
 H         2.137275        -1.730209        -1.465902
