19
Iteration:  1527
 C         0.055579        -0.450946         0.232989
 C         1.472000        -0.137871         0.027358
 C         2.610611        -0.364920         1.001522
 C         3.068746         0.782338         0.268248
 C         4.606096         1.126084         0.232966
 O         4.799425         0.205483        -0.899305
 C         3.376024         0.356406        -1.260504
 C         2.196493        -0.688504        -1.325205
 O         1.646076         1.315265         0.184170
 H        -0.478491         0.043515         1.172968
 H        -0.583993        -0.123293        -0.649117
 H         0.020901        -1.680943         0.424011
 H         2.431473        -0.101893         2.046164
 H         3.233548        -1.249165         0.923043
 H         4.689214         2.235100        -0.116969
 H         5.140755         0.774528         1.040529
 H         3.164726         1.236835        -2.060024
 H         1.435393        -0.744836        -2.165143
 H         2.519792        -1.707731        -1.129589
