19
Iteration:   975
 C        -0.075827        -0.530173         0.159024
 C         1.437632        -0.171998         0.114070
 C         2.710835        -0.451985         1.020241
 C         3.120747         0.831640         0.192977
 C         4.526887         1.190929         0.183976
 O         4.746779         0.165890        -0.870956
 C         3.316297         0.352961        -1.203388
 C         2.234589        -0.609280        -1.307392
 O         1.771864         1.339085         0.201543
 H        -0.628951         0.092248         1.035691
 H        -0.460087        -0.223627        -0.825472
 H        -0.382453        -1.557714         0.269527
 H         2.477954        -0.182232         2.014789
 H         3.189194        -1.399716         0.914400
 H         4.659866         2.358484        -0.198825
 H         5.226383         1.082992         0.928055
 H         3.554298         1.157809        -1.916539
 H         1.676950        -0.653311        -2.201415
 H         2.462193        -1.617431        -1.047191
