19
Iteration:  1514charge 0 multiplicity 1
 C         0.042976        -0.510004         0.233993
 C         1.452316        -0.152295         0.004532
 C         2.536589        -0.457479         1.077481
 C         3.138916         0.822862         0.226471
 C         4.607262         1.229282         0.189668
 O         4.790995         0.232603        -0.936577
 C         3.310199         0.310642        -1.130087
 C         2.138762        -0.642417        -1.300740
 O         1.775589         1.310055         0.130036
 H        -0.323844         0.075945         1.054067
 H        -0.602354        -0.331143        -0.726377
 H        -0.067988        -1.648072         0.444881
 H         2.130931        -0.229474         2.055042
 H         3.032033        -1.437493         1.077813
 H         5.028614         2.218962        -0.132210
 H         5.129687         0.930836         1.081383
 H         3.223632         1.156061        -1.863357
 H         1.627378        -0.421469        -2.302158
 H         2.362243        -1.717724        -1.229232
