19
Iteration:  2240charge 0 multiplicity 1
 C         0.017232        -0.428513         0.294453
 C         1.454046        -0.205067        -0.002850
 C         2.631432        -0.350235         1.011157
 C         3.134064         0.917211         0.190059
 C         4.631012         1.189888         0.240534
 O         4.753102         0.111110        -0.842655
 C         3.361886         0.401715        -1.239171
 C         2.135100        -0.678477        -1.328186
 O         1.661514         1.228852         0.128120
 H        -0.251877        -0.109639         1.341726
 H        -0.663335         0.163306        -0.468898
 H        -0.316462        -1.475671         0.233310
 H         2.460343        -0.121235         2.074123
 H         3.283621        -1.230499         0.973339
 H         5.187022         2.027623        -0.299064
 H         5.129588         1.005425         1.182972
 H         3.451465         1.123682        -1.977509
 H         1.453082        -0.769185        -2.196676
 H         2.577678        -1.730462        -1.251401
