19
Iteration:  3704
 C         0.059151        -0.598629         0.306673
 C         1.477842        -0.121204         0.048829
 C         2.583535        -0.315151         1.049876
 C         3.080754         0.836664         0.193489
 C         4.652892         1.212232         0.220478
 O         4.809627         0.207115        -0.820769
 C         3.330935         0.213500        -1.190575
 C         2.110023        -0.678680        -1.317742
 O         1.728366         1.372588        -0.008940
 H        -0.339552        -0.206576         1.308049
 H        -0.740444        -0.075900        -0.277460
 H         0.027785        -1.683863         0.180147
 H         2.212516         0.176707         2.038237
 H         2.754034        -1.413099         0.882570
 H         5.053345         2.176852        -0.066747
 H         5.292071         0.868694         1.049849
 H         3.204751         0.990674        -2.016946
 H         1.505085        -0.350109        -2.133974
 H         2.212964        -1.857042        -1.251823
