19
Iteration:  3105charge 0 multiplicity 1
 C        -0.017357        -0.483398         0.293830
 C         1.400593        -0.164139         0.015097
 C         2.598850        -0.280186         1.021601
 C         3.170300         0.816996         0.067095
 C         4.704976         1.199874         0.289564
 O         4.778634         0.162286        -0.818387
 C         3.341678         0.339841        -1.266788
 C         2.156847        -0.695006        -1.294924
 O         1.674198         1.242006         0.115897
 H        -0.439397         0.092351         1.068261
 H        -0.670893        -0.167308        -0.549188
 H        -0.059795        -1.557756         0.661982
 H         2.572912         0.064206         2.014472
 H         3.231690        -1.201125         1.104071
 H         5.120443         2.246813         0.019608
 H         4.978450         0.939101         1.314753
 H         3.187897         0.939324        -2.268290
 H         1.701756        -0.369449        -2.338108
 H         2.187344        -1.782883        -1.123972
