19
Iteration:  4249
 C        -0.031395        -0.508537         0.254008
 C         1.506477        -0.256152         0.070017
 C         2.636108        -0.333152         1.072809
 C         3.059684         0.851099         0.109637
 C         4.635128         1.291827         0.179535
 O         4.725249         0.048305        -0.768058
 C         3.308086         0.343078        -1.243809
 C         2.233890        -0.606281        -1.303029
 O         1.744188         1.286574         0.092216
 H        -0.424776         0.133077         1.040645
 H        -0.404174        -0.203883        -0.733373
 H        -0.432684        -1.512157         0.499850
 H         2.357743        -0.023075         2.143475
 H         3.308573        -1.182734         1.126047
 H         4.828583         2.170223        -0.430948
 H         5.300749         1.265501         1.096906
 H         3.153018         1.103096        -2.037628
 H         1.355301        -0.351529        -1.924606
 H         2.598712        -1.664210        -1.462905
