19
Iteration:  1005
 C         0.050311        -0.574774         0.209974
 C         1.483098        -0.188820        -0.002912
 C         2.483094        -0.470047         1.044652
 C         3.152224         0.807396         0.271014
 C         4.703349         1.308235         0.110024
 O         4.832282         0.190965        -0.850438
 C         3.326706         0.290304        -1.123313
 C         2.102105        -0.587319        -1.369016
 O         1.720799         1.349595         0.180710
 H        -0.290920        -0.069092         1.255709
 H        -0.530872        -0.191972        -0.600177
 H        -0.054909        -1.703391         0.422923
 H         2.032018        -0.188622         2.007645
 H         2.802577        -1.519688         1.217722
 H         4.671750         2.296561        -0.326943
 H         5.404044         1.154865         0.949062
 H         3.340129         1.034791        -2.030094
 H         1.456076        -0.281566        -2.275666
 H         2.044587        -1.716086        -1.414750
