19
Iteration:   104
 C        -0.077727        -0.530286         0.387855
 C         1.405681        -0.116564         0.049476
 C         2.592413        -0.479257         1.039533
 C         3.123200         0.712007         0.145770
 C         4.613531         1.272088         0.190151
 O         4.803472         0.244920        -0.803840
 C         3.300953         0.326342        -1.253258
 C         2.247651        -0.633639        -1.402822
 O         1.784954         1.325359         0.091978
 H        -0.489829         0.049439         1.289153
 H        -0.853696        -0.268136        -0.472947
 H        -0.077848        -1.611107         0.563630
 H         2.506760        -0.159964         2.081087
 H         2.903396        -1.525177         0.925748
 H         4.961504         2.199468        -0.253912
 H         5.061591         1.082371         1.172792
 H         3.224055         1.250450        -1.979988
 H         1.613696        -0.516343        -2.340956
 H         2.598046        -1.748410        -1.304375
