19
Iteration:  4998charge 0 multiplicity 1
 C         0.039309        -0.507323         0.230350
 C         1.439391        -0.149181         0.050641
 C         2.652988        -0.362055         0.985648
 C         3.104876         0.867637         0.162411
 C         4.581612         1.185916         0.135924
 O         4.762486         0.070037        -0.732329
 C         3.367687         0.285772        -1.209928
 C         2.175987        -0.614681        -1.340832
 O         1.651200         1.349736         0.184441
 H        -0.552612         0.201136         0.895829
 H        -0.388365        -0.563904        -0.782536
 H        -0.094127        -1.497219         0.502826
 H         2.727724         0.085240         1.997372
 H         3.342157        -1.235279         1.249662
 H         4.881892         2.121727        -0.506834
 H         5.164933         1.233472         1.013791
 H         3.405196         1.076847        -1.989250
 H         1.407494        -0.468537        -2.131979
 H         2.466423        -1.663537        -1.473541
