19
Iteration:  2157charge 0 multiplicity 1
 C        -0.019040        -0.535627         0.353981
 C         1.440393        -0.230563        -0.026323
 C         2.559693        -0.415731         1.047846
 C         3.120175         0.838427         0.175782
 C         4.586532         1.232208         0.219587
 O         4.810398         0.128328        -0.869308
 C         3.338816         0.331279        -1.191462
 C         2.170530        -0.598317        -1.373661
 O         1.759705         1.354291         0.113223
 H        -0.286903         0.094619         1.277684
 H        -0.685914        -0.115730        -0.364242
 H        -0.202149        -1.612328         0.394108
 H         2.266333         0.080571         1.976168
 H         3.306422        -1.217171         1.255973
 H         4.993974         2.089869        -0.246164
 H         5.065248         0.878585         1.242004
 H         3.274056         1.100773        -2.097594
 H         1.652131        -0.312551        -2.313338
 H         2.457821        -1.688437        -1.326825
