19
Iteration:  4008charge 0 multiplicity 1
 C         0.041296        -0.620823         0.239959
 C         1.465903        -0.161341         0.083353
 C         2.573287        -0.345905         1.023116
 C         3.128382         0.820667         0.253862
 C         4.583602         1.252626         0.059000
 O         4.832423         0.107208        -0.721011
 C         3.410257         0.276111        -1.217412
 C         2.059297        -0.547552        -1.309114
 O         1.720666         1.334847         0.057273
 H        -0.299597        -0.275113         1.297431
 H        -0.791657        -0.198202        -0.354263
 H         0.038927        -1.717243         0.157372
 H         2.105927        -0.124307         1.991272
 H         3.215106        -1.205543         0.919898
 H         4.671937         2.134166        -0.570866
 H         5.260720         1.442163         0.969570
 H         3.461561         1.177298        -1.824382
 H         1.411119        -0.215083        -2.059098
 H         2.263423        -1.696997        -1.325287
