19
Iteration:   744charge 0 multiplicity 1
 C        -0.033999        -0.641582         0.227034
 C         1.447066        -0.214280         0.051126
 C         2.693408        -0.357980         1.008042
 C         3.105337         0.898040         0.197680
 C         4.613015         1.248199         0.111798
 O         4.694544         0.066048        -0.740292
 C         3.361898         0.410664        -1.217764
 C         2.124877        -0.640700        -1.310236
 O         1.784235         1.391205         0.152893
 H        -0.313484        -0.525263         1.261821
 H        -0.749486        -0.199052        -0.456225
 H         0.030564        -1.769814         0.079387
 H         2.461353        -0.115533         2.063354
 H         3.192904        -1.308942         0.900816
 H         4.816389         2.231260        -0.351494
 H         5.289525         1.062940         0.873138
 H         3.336274         1.282576        -1.979672
 H         1.567093        -0.210982        -2.185310
 H         2.295115        -1.707799        -1.440434
