19
Iteration:  4118
 C         0.031777        -0.497705         0.181855
 C         1.435356        -0.110478         0.092603
 C         2.580192        -0.365055         1.097571
 C         3.098391         0.823878         0.190811
 C         4.516509         1.257557         0.134424
 O         4.810982         0.178813        -0.846120
 C         3.373165         0.264615        -1.258362
 C         2.145697        -0.729820        -1.322296
 O         1.803597         1.309686         0.194994
 H        -0.408007         0.000685         1.110625
 H        -0.463739        -0.202424        -0.746541
 H         0.032391        -1.605124         0.332553
 H         2.292698         0.121055         2.085840
 H         3.069376        -1.298966         1.129883
 H         4.483157         2.236891        -0.220054
 H         5.187640         1.093229         1.001171
 H         3.194942         0.969609        -2.112173
 H         1.761638        -0.515064        -2.259163
 H         2.175755        -1.849031        -1.128182
