19
Iteration:  2368charge 0 multiplicity 1
 C        -0.050659        -0.503040         0.321828
 C         1.364698        -0.098349         0.090164
 C         2.533234        -0.376216         0.988681
 C         3.159672         0.737089         0.230682
 C         4.655986         1.170413         0.187584
 O         4.837851         0.248415        -0.941503
 C         3.358722         0.274982        -1.121953
 C         2.155813        -0.673650        -1.302057
 O         1.748725         1.338323         0.071300
 H        -0.502751        -0.051291         1.081208
 H        -0.574662        -0.530135        -0.597490
 H         0.138775        -1.590975         0.496247
 H         2.247515         0.005415         1.992688
 H         2.956736        -1.400511         1.029129
 H         4.711889         2.144473        -0.292031
 H         5.281913         1.103926         1.129114
 H         3.325330         1.122450        -1.896829
 H         1.882205        -0.388232        -2.308149
 H         2.346565        -1.691872        -1.278968
