19
Iteration:  2695
 C        -0.052838        -0.501402         0.260093
 C         1.448582        -0.229509         0.061365
 C         2.724231        -0.354037         0.973520
 C         3.118208         0.882955         0.183383
 C         4.661860         1.240265         0.236077
 O         4.725811         0.117073        -0.797667
 C         3.348523         0.309746        -1.229757
 C         2.132699        -0.670773        -1.254093
 O         1.720294         1.362382         0.077409
 H        -0.401014         0.090431         1.097956
 H        -0.623568        -0.433698        -0.712759
 H        -0.319706        -1.639101         0.429550
 H         2.603402        -0.056243         1.997958
 H         3.018861        -1.300548         0.728101
 H         4.684509         2.233809        -0.170733
 H         5.329490         1.017340         1.121848
 H         3.499316         1.060915        -2.062304
 H         1.501423        -0.489096        -2.158460
 H         2.322055        -1.797548        -1.338079
