19
Iteration:  1227charge 0 multiplicity 1
 C         0.023655        -0.642336         0.250840
 C         1.444336        -0.118872        -0.000860
 C         2.688077        -0.394293         0.996471
 C         3.093820         0.839176         0.180253
 C         4.641990         1.263785         0.189946
 O         4.704392         0.097756        -0.745511
 C         3.389400         0.317014        -1.203165
 C         2.093071        -0.638676        -1.360933
 O         1.715202         1.375866         0.159313
 H        -0.147497        -0.296513         1.346055
 H        -0.564226         0.092267        -0.377086
 H        -0.064692        -1.618054        -0.050952
 H         2.540664        -0.013107         1.999716
 H         3.188005        -1.316272         0.905144
 H         4.701714         2.348902        -0.290639
 H         5.273232         1.177543         1.088488
 H         3.497835         1.051732        -2.101798
 H         1.591188        -0.275757        -2.248746
 H         2.101762        -1.758851        -1.343583
