19
Iteration:  1234
 C         0.066231        -0.557926         0.269863
 C         1.470117        -0.160926        -0.000535
 C         2.651667        -0.349838         0.927380
 C         3.103023         0.932921         0.168411
 C         4.635102         1.243744         0.187593
 O         4.690787         0.082830        -0.756520
 C         3.402977         0.288407        -1.193687
 C         2.128172        -0.622225        -1.368923
 O         1.653404         1.304270         0.216801
 H        -0.268689        -0.395192         1.316141
 H        -0.461711         0.055334        -0.393949
 H        -0.048508        -1.636609        -0.048310
 H         2.403820        -0.007692         1.961249
 H         3.395112        -1.242520         0.983441
 H         4.937938         2.111556        -0.349462
 H         5.250078         1.234709         1.203187
 H         3.375601         0.943329        -1.993250
 H         1.617323        -0.326623        -2.355972
 H         2.125617        -1.738872        -1.390085
