19
Iteration:  2658charge 0 multiplicity 1
 C         0.064833        -0.575491         0.270063
 C         1.443195        -0.105956        -0.014225
 C         2.491023        -0.361201         1.020369
 C         3.182773         0.809667         0.180419
 C         4.605456         1.266013         0.126879
 O         4.829857         0.096992        -0.738056
 C         3.366671         0.316114        -1.202859
 C         2.067205        -0.674054        -1.360420
 O         1.723716         1.365522         0.159635
 H        -0.145565        -0.392536         1.341285
 H        -0.628721        -0.019798        -0.297777
 H        -0.021400        -1.636243         0.221575
 H         2.307290         0.024334         2.033949
 H         2.967653        -1.402962         1.182696
 H         4.627406         2.225281        -0.453174
 H         5.503255         1.295520         0.817141
 H         3.331797         0.919155        -2.177309
 H         1.529584        -0.363588        -2.248104
 H         2.345448        -1.668350        -1.231931
