19
Iteration:  2136
 C         0.097683        -0.431894         0.334400
 C         1.480280        -0.196218         0.047313
 C         2.673028        -0.349434         0.959551
 C         3.107454         0.895269         0.131474
 C         4.616719         1.157098         0.254357
 O         4.725932         0.110156        -0.755147
 C         3.320688         0.393361        -1.253916
 C         2.156545        -0.665983        -1.340086
 O         1.629849         1.243901         0.052761
 H        -0.336230        -0.050158         1.338318
 H        -0.541800         0.107295        -0.299750
 H        -0.197742        -1.524931         0.163894
 H         2.514257        -0.158087         2.047546
 H         3.446311        -1.216866         0.785485
 H         4.800633         2.199868        -0.010688
 H         5.268769         0.640917         1.124781
 H         3.375239         1.342629        -1.981815
 H         1.418845        -0.438934        -2.107897
 H         2.452619        -1.713965        -1.248714
