19
Iteration:   201
 C         0.076377        -0.610360         0.320769
 C         1.451976        -0.124095         0.024321
 C         2.534765        -0.304711         1.017712
 C         3.114500         0.810012         0.206715
 C         4.654166         1.132005         0.227217
 O         4.742968         0.213709        -0.896312
 C         3.326257         0.320849        -1.153847
 C         2.134484        -0.655034        -1.341630
 O         1.753436         1.345137         0.071154
 H        -0.085718        -0.621276         1.322948
 H        -0.698475         0.033366        -0.229899
 H         0.038806        -1.619318        -0.070249
 H         2.263927         0.103277         1.979489
 H         3.145317        -1.190001         1.161935
 H         4.875957         2.193724        -0.115572
 H         5.266459         0.905774         1.099466
 H         3.173656         1.102990        -1.822663
 H         1.608761        -0.389894        -2.318677
 H         2.285069        -1.798750        -1.250663
