19
Iteration:  4254
 C        -0.008039        -0.488469         0.258760
 C         1.454948        -0.287064         0.051921
 C         2.644755        -0.345932         1.114211
 C         3.092151         0.872983         0.142156
 C         4.631410         1.317411         0.190164
 O         4.731556         0.056989        -0.790406
 C         3.334504         0.326459        -1.243850
 C         2.174795        -0.655728        -1.291698
 O         1.748616         1.312292         0.090101
 H        -0.578851         0.124903         0.995469
 H        -0.309401        -0.246699        -0.804784
 H        -0.384699        -1.514055         0.501065
 H         2.360488        -0.082746         2.089039
 H         3.309166        -1.245434         1.121858
 H         4.769999         2.171250        -0.503629
 H         5.271801         1.213395         1.041918
 H         3.218034         1.163620        -2.000670
 H         1.412393        -0.338075        -2.093029
 H         2.681212        -1.554791        -1.624536
