19
Iteration:   938charge 0 multiplicity 1
 C         0.081389        -0.505645         0.272312
 C         1.484003        -0.114943        -0.029906
 C         2.652867        -0.386378         0.967894
 C         3.110617         0.822597         0.257113
 C         4.581926         1.173435         0.249296
 O         4.787032         0.225987        -0.874753
 C         3.352997         0.288492        -1.139694
 C         2.125437        -0.678781        -1.356395
 O         1.636484         1.310031         0.107937
 H        -0.108665        -0.027261         1.243361
 H        -0.616705         0.055213        -0.376359
 H        -0.167667        -1.662390         0.322946
 H         2.204614        -0.018542         1.935546
 H         3.271687        -1.275084         1.202333
 H         4.764225         2.198369         0.042492
 H         5.205831         0.658978         1.049044
 H         3.113793         1.013680        -1.962153
 H         1.737775        -0.476237        -2.414971
 H         2.473447        -1.743298        -1.251334
