19
Iteration:   242charge 0 multiplicity 1
 C        -0.012243        -0.513904         0.320608
 C         1.403821        -0.142931         0.040499
 C         2.608020        -0.400805         0.956628
 C         3.159091         0.789571         0.210578
 C         4.630788         1.273724         0.101173
 O         4.825241         0.240856        -0.817017
 C         3.360211         0.242560        -1.169489
 C         2.148865        -0.685289        -1.340270
 O         1.709617         1.286755         0.188561
 H        -0.350959        -0.339718         1.307625
 H        -0.684362         0.153323        -0.357164
 H        -0.208269        -1.592253        -0.002727
 H         2.355733        -0.034329         1.950177
 H         2.978586        -1.392105         0.935366
 H         4.670442         2.322573        -0.369694
 H         5.291213         1.159520         0.870440
 H         3.314690         1.032391        -1.928454
 H         1.649719        -0.318969        -2.203626
 H         2.174772        -1.706335        -1.405042
