19
Iteration:  2231
 C        -0.015597        -0.416852         0.256555
 C         1.476104        -0.263819         0.035533
 C         2.711868        -0.323742         1.009054
 C         3.080557         0.871053         0.177720
 C         4.644808         1.195184         0.186052
 O         4.737254         0.092865        -0.833417
 C         3.371281         0.373110        -1.234671
 C         2.176388        -0.649224        -1.327802
 O         1.622521         1.259011         0.174756
 H        -0.333771         0.059410         1.297336
 H        -0.597969         0.142924        -0.598778
 H        -0.271167        -1.453814         0.271430
 H         2.286350         0.040441         1.928361
 H         3.315397        -1.207517         1.078373
 H         5.074414         2.244558        -0.106582
 H         5.218231         0.689269         1.064252
 H         3.330417         1.149574        -1.988887
 H         1.548504        -0.498322        -2.290124
 H         2.650350        -1.747637        -1.173044
