19
Iteration:  2875charge 0 multiplicity 1
 C         0.031122        -0.496413         0.254469
 C         1.497945        -0.217873         0.030195
 C         2.606735        -0.337890         1.116557
 C         3.109569         0.848453         0.252291
 C         4.602397         1.197601         0.170801
 O         4.811636         0.173595        -0.858337
 C         3.346182         0.296268        -1.176453
 C         2.142598        -0.680541        -1.318152
 O         1.694635         1.354846         0.028901
 H        -0.576645         0.103852         1.000050
 H        -0.715022        -0.399376        -0.530415
 H        -0.147626        -1.554988         0.509206
 H         2.396333        -0.018931         2.080900
 H         3.121890        -1.258474         1.201638
 H         4.917239         2.164775        -0.186423
 H         5.201391         0.864429         0.959633
 H         3.275276         1.020414        -1.937103
 H         1.528412        -0.454446        -2.221006
 H         2.191325        -1.752580        -1.391477
