19
Iteration:  1517
 C         0.051652        -0.499270         0.226949
 C         1.448164        -0.128294         0.005730
 C         2.554694        -0.450468         1.079542
 C         3.112067         0.817848         0.242431
 C         4.602885         1.205397         0.190182
 O         4.788779         0.230312        -0.943687
 C         3.329339         0.314079        -1.144286
 C         2.141702        -0.655742        -1.314088
 O         1.750328         1.302258         0.140344
 H        -0.312629         0.137450         1.152078
 H        -0.490533        -0.302018        -0.709522
 H        -0.025484        -1.679243         0.440371
 H         2.108011        -0.219532         2.050809
 H         3.081215        -1.405238         1.010679
 H         5.054229         2.217620        -0.070195
 H         5.078599         0.993749         1.108741
 H         3.336038         1.178933        -1.960410
 H         1.556571        -0.503509        -2.241942
 H         2.429809        -1.696924        -1.194456
