19
Iteration:  2391
 C        -0.010815        -0.456390         0.278787
 C         1.461747        -0.218682        -0.009093
 C         2.588924        -0.365607         1.125761
 C         3.132555         0.776244         0.265491
 C         4.636976         1.243149         0.168128
 O         4.803609         0.197627        -0.914479
 C         3.333974         0.308855        -1.174049
 C         2.124325        -0.681218        -1.330356
 O         1.723384         1.295449         0.071258
 H        -0.086988         0.085984         1.176604
 H        -0.678242        -0.075226        -0.509941
 H        -0.322837        -1.503314         0.350589
 H         2.207352        -0.148671         2.155538
 H         3.224673        -1.314515         1.093807
 H         4.897698         2.274198        -0.188872
 H         5.085394         0.924575         1.123772
 H         3.401102         1.164410        -1.938767
 H         1.521630        -0.405115        -2.183010
 H         2.434436        -1.687489        -1.315876
