19
Iteration:  1550
 C        -0.074196        -0.534685         0.261161
 C         1.438322        -0.219536         0.028791
 C         2.678757        -0.368039         0.941091
 C         3.068511         0.904087         0.160558
 C         4.684393         1.210162         0.249836
 O         4.727397         0.139594        -0.838256
 C         3.322243         0.384234        -1.213473
 C         2.217978        -0.654292        -1.316425
 O         1.728811         1.309273         0.173510
 H        -0.413754        -0.131086         1.365876
 H        -0.602194         0.158901        -0.415960
 H        -0.378876        -1.725553         0.192148
 H         2.422982        -0.059755         1.969425
 H         3.234850        -1.305807         0.966640
 H         5.256777         2.139753        -0.150569
 H         4.799424         0.796412         1.197693
 H         3.346457         1.073901        -2.198560
 H         1.636070        -0.669207        -2.258907
 H         2.691937        -1.638257        -1.197264
