19
Iteration:   926
 C         0.093476        -0.540437         0.350181
 C         1.444603        -0.160632        -0.040550
 C         2.559774        -0.411387         1.069660
 C         3.126429         0.728590         0.252423
 C         4.559832         1.195060         0.246755
 O         4.798510         0.204461        -0.896801
 C         3.359556         0.305014        -1.150067
 C         2.177101        -0.607072        -1.346977
 O         1.697925         1.389455        -0.006327
 H        -0.118633        -0.383770         1.356859
 H        -0.685466        -0.110206        -0.342917
 H         0.058433        -1.691884         0.173502
 H         2.292722        -0.116346         2.127227
 H         3.139224        -1.368171         0.972510
 H         4.715992         2.157955        -0.078949
 H         5.161194         1.104970         1.218209
 H         3.287844         1.232013        -1.739593
 H         1.531068        -0.228231        -2.207406
 H         2.154329        -1.723763        -1.441008
