19
Iteration:  3798
 C        -0.000139        -0.552332         0.293743
 C         1.467975        -0.120066         0.092760
 C         2.552493        -0.385476         1.072708
 C         3.123066         0.867421         0.110021
 C         4.567349         1.256101         0.139543
 O         4.786807         0.149064        -0.795171
 C         3.420034         0.264798        -1.244349
 C         2.121680        -0.685429        -1.345883
 O         1.786080         1.340646         0.144711
 H        -0.496382        -0.091216         1.120127
 H        -0.741213        -0.162440        -0.489364
 H         0.083281        -1.672914         0.286391
 H         2.209449         0.014712         1.955445
 H         2.818081        -1.472848         1.002285
 H         4.675780         2.281744        -0.292938
 H         5.201117         1.201136         1.128118
 H         3.351515         0.989038        -2.042100
 H         1.487417        -0.530329        -2.315921
 H         2.548134        -1.649377        -1.191744
