19
Iteration:  1580charge 0 multiplicity 1
 C         0.117001        -0.618331         0.274563
 C         1.445425        -0.073150         0.019811
 C         2.598246        -0.371348         0.986259
 C         3.157840         0.746143         0.249192
 C         4.570513         1.223455         0.140964
 O         4.849719         0.082246        -0.785808
 C         3.308704         0.271738        -1.137019
 C         2.116067        -0.512057        -1.344724
 O         1.675590         1.350784         0.089425
 H        -0.137670        -0.514667         1.341937
 H        -0.656362         0.056948        -0.161599
 H        -0.229882        -1.654652        -0.124909
 H         2.390934         0.096030         1.948843
 H         3.012936        -1.364241         1.092045
 H         4.671970         2.252002        -0.421870
 H         5.001494         1.292814         1.118359
 H         3.275397         1.073008        -1.917451
 H         1.522696        -0.115421        -2.305168
 H         2.309976        -1.570017        -1.521058
