19
Iteration:  2099
 C        -0.025138        -0.593234         0.315718
 C         1.430859        -0.123264        -0.005036
 C         2.535597        -0.358472         0.992348
 C         3.125442         0.789242         0.186476
 C         4.597295         1.256969         0.158173
 O         4.791044         0.107537        -0.745211
 C         3.363137         0.326746        -1.260833
 C         2.112359        -0.632465        -1.337834
 O         1.824197         1.362949         0.172640
 H        -0.242837        -0.660485         1.337150
 H        -0.706351         0.024048        -0.380180
 H        -0.048085        -1.592961        -0.020798
 H         2.299111         0.129166         1.928194
 H         3.231837        -1.123701         1.023115
 H         4.785724         2.234409        -0.310797
 H         5.358254         1.157847         0.967261
 H         3.341230         1.011240        -2.153310
 H         1.546916        -0.417980        -2.298691
 H         2.244487        -1.793263        -1.339461
