19
Iteration:  1627charge 0 multiplicity 1
 C         0.057522        -0.519774         0.262208
 C         1.461427        -0.168298         0.041807
 C         2.699183        -0.350819         0.951279
 C         3.071620         0.873901         0.145793
 C         4.575019         1.201915         0.245425
 O         4.794704         0.047482        -0.836630
 C         3.359880         0.366779        -1.181438
 C         2.125089        -0.589629        -1.326364
 O         1.669058         1.332990         0.159035
 H        -0.414067        -0.100792         1.283460
 H        -0.645474        -0.169081        -0.525226
 H        -0.092907        -1.733043         0.216112
 H         2.361939        -0.266396         1.987462
 H         3.340736        -1.213875         0.782678
 H         4.941464         2.256732        -0.162239
 H         4.944038         0.893166         1.228413
 H         3.218742         1.209024        -1.989187
 H         1.578160        -0.603030        -2.321104
 H         2.477498        -1.645748        -1.149667
