19
Iteration:  4884
 C        -0.020698        -0.555468         0.224504
 C         1.486911        -0.139733         0.081630
 C         2.596585        -0.333832         1.060875
 C         3.141905         0.805929         0.150424
 C         4.564240         1.264861         0.091126
 O         4.867378         0.106952        -0.719560
 C         3.333684         0.308837        -1.244668
 C         2.075504        -0.640384        -1.298751
 O         1.732335         1.333573         0.121196
 H        -0.371176        -0.571424         1.164496
 H        -0.544193         0.111758        -0.415446
 H        -0.158618        -1.512708        -0.265534
 H         2.717458        -0.000498         2.085347
 H         2.961467        -1.328436         1.008639
 H         4.737101         2.278646        -0.286496
 H         5.153798         1.036475         1.067358
 H         3.523176         0.991870        -2.097518
 H         1.347047        -0.384689        -2.052747
 H         2.230995        -1.709606        -1.238383
