19
Iteration:  2862charge 0 multiplicity 1
 C        -0.038972        -0.572917         0.299934
 C         1.396793        -0.183136         0.006316
 C         2.575265        -0.276746         1.057482
 C         3.138034         0.774931         0.161467
 C         4.635481         1.214390         0.234570
 O         4.854995         0.210648        -0.840111
 C         3.327737         0.265435        -1.176017
 C         2.050653        -0.724236        -1.340414
 O         1.829936         1.359058         0.062970
 H        -0.196908         0.003617         1.242942
 H        -0.497057        -0.318937        -0.647198
 H        -0.035023        -1.622553         0.465123
 H         2.155719         0.183328         1.952748
 H         3.166233        -1.089751         1.103165
 H         4.731641         2.289435        -0.123177
 H         5.054203         1.079920         1.158930
 H         3.174426         1.103578        -1.899438
 H         1.479423        -0.410709        -2.232909
 H         2.321572        -1.825038        -1.336103
