19
Iteration:    43charge 0 multiplicity 1
 C        -0.057752        -0.635989         0.239052
 C         1.380789        -0.164855         0.064214
 C         2.579952        -0.358333         1.021038
 C         3.142735         0.822319         0.212997
 C         4.574797         1.201412         0.106266
 O         4.840835         0.108374        -0.863439
 C         3.353060         0.393467        -1.252091
 C         2.164127        -0.543920        -1.205096
 O         1.794094         1.337902         0.131065
 H        -0.383248        -0.732460         1.346420
 H        -0.654789         0.004107        -0.248517
 H        -0.117445        -1.605920        -0.185537
 H         2.244672        -0.109415         2.043757
 H         3.114865        -1.349743         1.188496
 H         4.686795         2.157237        -0.416959
 H         5.310107         1.235742         0.998962
 H         3.326460         1.186157        -1.903047
 H         1.515549        -0.490416        -2.031946
 H         2.476792        -1.521562        -1.139420
