19
Iteration:  3510
 C         0.046560        -0.565694         0.320756
 C         1.430433        -0.205590         0.056492
 C         2.602417        -0.372973         1.008456
 C         3.076457         0.897618         0.148773
 C         4.554114         1.274013         0.215837
 O         4.846228         0.065390        -0.751840
 C         3.411728         0.301718        -1.189262
 C         2.057368        -0.637072        -1.269824
 O         1.738674         1.365012        -0.009833
 H        -0.148009        -0.286019         1.386758
 H        -0.500065         0.005347        -0.440572
 H        -0.238360        -1.593895         0.031648
 H         2.268953        -0.090121         2.089634
 H         3.218333        -1.261715         0.924356
 H         4.693523         2.120992        -0.524709
 H         5.215412         1.268954         1.026082
 H         3.392319         1.004800        -1.986306
 H         1.618254        -0.162591        -2.140880
 H         2.300524        -1.716912        -1.498103
