19
Iteration:  1982charge 0 multiplicity 1
 C        -0.029622        -0.606378         0.310291
 C         1.378812        -0.102990         0.028938
 C         2.508482        -0.458406         1.108122
 C         3.128042         0.775261         0.267057
 C         4.572809         1.298165         0.104163
 O         4.884457         0.120488        -0.850999
 C         3.439451         0.318961        -1.184678
 C         2.127321        -0.547966        -1.369909
 O         1.752779         1.327967         0.062908
 H        -0.230338        -0.147112         1.330799
 H        -0.551883        -0.198521        -0.552018
 H         0.002889        -1.688447         0.362198
 H         2.302673         0.096506         2.038435
 H         2.997554        -1.466402         1.214783
 H         4.751391         2.280891        -0.238193
 H         5.254768         1.166171         1.054996
 H         3.480056         1.008106        -2.007465
 H         1.490876        -0.237098        -2.187288
 H         2.133038        -1.628640        -1.404374
