19
Iteration:  4653charge 0 multiplicity 1
 C         0.008135        -0.527863         0.262727
 C         1.446141        -0.219869         0.060115
 C         2.592646        -0.301477         1.046523
 C         3.087846         0.833740         0.228397
 C         4.626369         1.189916         0.172916
 O         4.808360         0.132201        -0.854675
 C         3.365201         0.301150        -1.188931
 C         2.147093        -0.571761        -1.268407
 O         1.763962         1.295257         0.042282
 H        -0.445211        -0.074695         1.119074
 H        -0.601013        -0.148975        -0.622977
 H        -0.345199        -1.645932         0.421314
 H         2.330233         0.010191         2.030914
 H         3.042466        -1.316362         0.931643
 H         4.684525         2.050308        -0.369239
 H         5.195425         1.138627         1.136955
 H         3.286555         1.059342        -2.015083
 H         1.467740        -0.305567        -2.115905
 H         2.280717        -1.572177        -1.107209
