19
Iteration:  2720
 C         0.024734        -0.456254         0.293555
 C         1.462964        -0.170636        -0.035641
 C         2.618607        -0.309707         1.101815
 C         3.108112         0.906897         0.204650
 C         4.603530         1.142953         0.182978
 O         4.812911         0.126448        -0.877526
 C         3.341071         0.358969        -1.190164
 C         2.169331        -0.652604        -1.325320
 O         1.647262         1.223489         0.099383
 H        -0.224408         0.316317         1.180461
 H        -0.669862        -0.510733        -0.621652
 H        -0.097416        -1.497351         0.675442
 H         2.222056         0.117408         2.072819
 H         3.168236        -1.283626         1.076643
 H         4.852020         2.215919        -0.059272
 H         5.047088         0.815493         1.050520
 H         3.535925         1.125717        -1.889485
 H         1.715714        -0.484290        -2.329752
 H         2.472657        -1.769230        -1.319097
