19
Iteration:   883
 C         0.075520        -0.590445         0.224000
 C         1.457416        -0.109304         0.057026
 C         2.657763        -0.302086         0.958802
 C         3.104012         0.920623         0.174744
 C         4.589932         1.224069         0.168655
 O         4.811045         0.053049        -0.766528
 C         3.369263         0.282176        -1.217927
 C         2.130487        -0.625636        -1.372145
 O         1.595212         1.334598         0.250961
 H        -0.184887        -0.399556         1.235621
 H        -0.646300        -0.097631        -0.502913
 H         0.012244        -1.767782         0.206958
 H         2.438180        -0.221607         2.051885
 H         3.282693        -1.160688         0.675731
 H         4.850440         2.187450        -0.372571
 H         5.291033         1.163834         1.096948
 H         3.340794         1.017956        -2.072988
 H         1.557905        -0.305166        -2.301201
 H         2.267910        -1.728823        -1.504245
