19
Iteration:  4951charge 0 multiplicity 1
 C         0.012682        -0.506755         0.293938
 C         1.409493        -0.134138        -0.023793
 C         2.506245        -0.339070         1.007277
 C         3.125864         0.802721         0.206827
 C         4.595781         1.208727         0.189290
 O         4.830109         0.152219        -0.828201
 C         3.404164         0.310720        -1.204502
 C         2.153446        -0.702534        -1.315117
 O         1.754916         1.352257         0.100072
 H        -0.194728         0.033566         1.182414
 H        -0.738759        -0.428107        -0.435367
 H         0.008347        -1.530031         0.565878
 H         2.309692        -0.191385         2.110758
 H         2.901849        -1.312144         1.000927
 H         4.749852         2.284391        -0.168550
 H         5.266708         1.031488         1.108309
 H         3.170418         1.205769        -1.876091
 H         1.792625        -0.530783        -2.280187
 H         2.212141        -1.825944        -1.236472
