19
Iteration:  1646charge 0 multiplicity 1
 C         0.064881        -0.468811         0.250698
 C         1.519016        -0.203037         0.018654
 C         2.638605        -0.371103         1.013359
 C         3.126767         0.841682         0.187792
 C         4.591142         1.107038         0.279248
 O         4.653365         0.176940        -0.827951
 C         3.305170         0.396188        -1.282198
 C         2.265592        -0.651518        -1.309302
 O         1.667255         1.308690         0.136382
 H        -0.300656         0.154536         1.085693
 H        -0.523692        -0.216852        -0.581320
 H        -0.071491        -1.570165         0.458068
 H         2.550283         0.078447         2.015738
 H         3.186498        -1.305196         1.052183
 H         4.881334         2.113851        -0.174554
 H         5.130347         0.693416         1.071930
 H         3.271549         1.150042        -2.131817
 H         1.415794        -0.461177        -2.154837
 H         2.518659        -1.729231        -1.301432
