19
Iteration:  1153
 C        -0.037180        -0.490467         0.229007
 C         1.504506        -0.289233         0.083572
 C         2.622895        -0.440450         0.994158
 C         3.129275         0.835858         0.194192
 C         4.567379         1.169075         0.247786
 O         4.754702         0.174852        -0.883812
 C         3.342062         0.445880        -1.285552
 C         2.197689        -0.614180        -1.237677
 O         1.699060         1.324624         0.117318
 H        -0.270890         0.270067         0.966152
 H        -0.445431        -0.115601        -0.802678
 H        -0.318951        -1.594803         0.459601
 H         2.474600        -0.107670         2.038286
 H         3.155380        -1.374649         0.875474
 H         4.840675         2.182112        -0.028131
 H         5.121329         0.775254         1.052812
 H         3.249858         1.420833        -1.853751
 H         1.576536        -0.882214        -2.027628
 H         2.761183        -1.480844        -0.952329
