19
Iteration:  4869charge 0 multiplicity 1
 C        -0.031663        -0.582186         0.204461
 C         1.365269        -0.106450         0.058461
 C         2.611327        -0.367555         1.008683
 C         3.145926         0.819947         0.192984
 C         4.593187         1.303413         0.147996
 O         4.822981         0.072576        -0.761339
 C         3.342281         0.234887        -1.229550
 C         2.118889        -0.610959        -1.288667
 O         1.815414         1.374197         0.167651
 H        -0.325405        -0.514702         1.318770
 H        -0.802070         0.019649        -0.386732
 H        -0.029377        -1.700359        -0.071649
 H         2.084414        -0.060959         1.870820
 H         3.313630        -1.285206         1.067056
 H         4.568402         2.054015        -0.639568
 H         5.267467         1.577442         0.961479
 H         3.320003         1.030488        -1.991999
 H         1.587737        -0.396791        -2.326682
 H         2.390449        -1.683610        -1.254308
