19
Iteration:  3359charge 0 multiplicity 1
 C        -0.045196        -0.523777         0.289586
 C         1.399988        -0.204556         0.037949
 C         2.642873        -0.255523         0.996523
 C         3.119399         0.804347         0.105130
 C         4.626918         1.194651         0.211734
 O         4.904950         0.145692        -0.774172
 C         3.385327         0.309384        -1.239242
 C         2.084206        -0.664048        -1.282802
 O         1.677634         1.309285         0.072741
 H        -0.239337        -0.124589         1.278857
 H        -0.638015         0.094080        -0.315740
 H        -0.153068        -1.582316         0.301182
 H         2.248214         0.025106         2.038608
 H         3.215629        -1.123011         1.164460
 H         4.874772         2.220482        -0.223831
 H         5.038799         1.059606         1.259282
 H         3.380332         1.009118        -2.138877
 H         1.392337        -0.509688        -2.096449
 H         2.327659        -1.794188        -1.302121
