19
Iteration:  4013
 C         0.015977        -0.629204         0.279064
 C         1.470885        -0.132723         0.081321
 C         2.579397        -0.369197         0.988327
 C         3.132653         0.874169         0.243061
 C         4.571611         1.237469         0.078649
 O         4.818401         0.105491        -0.728869
 C         3.431037         0.264656        -1.208928
 C         2.082772        -0.516794        -1.270362
 O         1.710399         1.316734         0.040635
 H        -0.443311        -0.446649         1.215705
 H        -0.604712        -0.133168        -0.489848
 H         0.002553        -1.721340         0.147150
 H         2.388778        -0.163745         2.101850
 H         3.074062        -1.386962         0.998254
 H         4.739446         2.162360        -0.602957
 H         5.148421         1.471393         0.932416
 H         3.630677         1.094116        -1.927080
 H         1.272715        -0.339054        -2.088421
 H         2.248545        -1.551558        -1.392140
