19
Iteration:  2786
 C         0.001762        -0.510665         0.246179
 C         1.484748        -0.177548         0.122787
 C         2.662064        -0.293297         1.070126
 C         3.119211         0.865355         0.167108
 C         4.569747         1.238771         0.130296
 O         4.783040         0.074886        -0.761818
 C         3.353903         0.297608        -1.237839
 C         2.187253        -0.635104        -1.349733
 O         1.654969         1.291062         0.129602
 H        -0.381978        -0.138257         1.289316
 H        -0.457755         0.088433        -0.593645
 H         0.054308        -1.514257        -0.106674
 H         2.519233         0.131035         2.086037
 H         2.970683        -1.296184         1.061645
 H         4.855962         2.172288        -0.404287
 H         5.078622         1.030748         0.983325
 H         3.354276         0.956898        -2.081008
 H         1.483420        -0.480977        -2.197796
 H         2.297209        -1.747165        -1.528219
