19
Iteration:  4189
 C        -0.006524        -0.621182         0.390683
 C         1.452074        -0.149345         0.038888
 C         2.530854        -0.282402         1.049222
 C         3.064467         0.757505         0.141751
 C         4.574609         1.213792         0.266442
 O         4.830303         0.126193        -0.818559
 C         3.355390         0.300280        -1.252541
 C         2.153922        -0.580155        -1.360261
 O         1.805446         1.367244         0.004264
 H        -0.289978        -0.509401         1.442713
 H        -0.830020        -0.217830        -0.237082
 H         0.120009        -1.717651         0.195261
 H         2.125676         0.218433         1.880548
 H         3.254824        -1.142336         1.128939
 H         4.749036         2.195839        -0.314958
 H         5.202006         1.059944         1.174672
 H         3.501276         1.115071        -1.978072
 H         1.373485        -0.443380        -2.183561
 H         2.454315        -1.632607        -1.202157
