19
Iteration:  2367
 C        -0.042968        -0.508838         0.316511
 C         1.364182        -0.094495         0.083393
 C         2.525805        -0.381861         0.990912
 C         3.162772         0.736900         0.224015
 C         4.652967         1.178447         0.183636
 O         4.835907         0.242510        -0.941167
 C         3.360056         0.280423        -1.134817
 C         2.157033        -0.666126        -1.286528
 O         1.755157         1.340382         0.079179
 H        -0.515143        -0.034210         1.062172
 H        -0.616941        -0.562057        -0.538696
 H         0.101546        -1.612136         0.488469
 H         2.250615         0.002269         1.983056
 H         2.941442        -1.381705         1.027690
 H         4.717837         2.150632        -0.263238
 H         5.261787         1.093434         1.163809
 H         3.358179         1.101995        -1.891032
 H         1.846183        -0.420768        -2.327080
 H         2.368397        -1.710698        -1.268466
