19
Iteration:  3865
 C         0.053960        -0.537528         0.282187
 C         1.460305        -0.244496         0.068617
 C         2.698220        -0.246287         0.975790
 C         3.146917         0.926369         0.155338
 C         4.545865         1.205369         0.225150
 O         4.769284         0.067838        -0.771626
 C         3.350255         0.344717        -1.264260
 C         2.074015        -0.674234        -1.364246
 O         1.668834         1.308267         0.146113
 H        -0.243591        -0.123188         1.272904
 H        -0.612797        -0.000679        -0.475412
 H        -0.138023        -1.613640         0.068505
 H         2.498166         0.205286         1.893032
 H         3.334506        -1.186255         1.042044
 H         4.991726         2.080193        -0.277257
 H         5.026069         1.004276         1.293357
 H         3.640691         0.889140        -2.140733
 H         1.352757        -0.384400        -2.152227
 H         2.508420        -1.695832        -1.283656
