19
Iteration:  2423charge 0 multiplicity 1
 C        -0.038930        -0.467009         0.242517
 C         1.413540        -0.106718         0.088510
 C         2.732619        -0.367611         1.018314
 C         3.108817         0.817699         0.172802
 C         4.556244         1.233441         0.148016
 O         4.727784         0.112244        -0.785581
 C         3.339508         0.320994        -1.278141
 C         2.224472        -0.748174        -1.364432
 O         1.692698         1.365913         0.219748
 H        -0.338410        -0.322260         1.198927
 H        -0.564182         0.228688        -0.349254
 H        -0.138482        -1.528478         0.084363
 H         2.591048        -0.293712         2.106208
 H         3.319600        -1.248469         0.672106
 H         4.910377         2.185881        -0.286088
 H         5.026905         1.088470         1.147826
 H         3.408439         1.002759        -2.168901
 H         1.720827        -0.756497        -2.321658
 H         2.621534        -1.713596        -1.182688
