19
Iteration:   526charge 0 multiplicity 1
 C         0.066150        -0.611574         0.362811
 C         1.416275        -0.172393        -0.007851
 C         2.560017        -0.391404         0.960625
 C         3.117288         0.804394         0.298643
 C         4.537604         1.275697         0.155607
 O         4.915837         0.121103        -0.778894
 C         3.343893         0.256212        -1.204866
 C         2.038263        -0.499588        -1.502231
 O         1.787389         1.318364         0.186532
 H        -0.185636        -0.335679         1.346821
 H        -0.749000        -0.224655        -0.327363
 H         0.080092        -1.749801         0.316416
 H         2.163158        -0.000801         1.908353
 H         3.085844        -1.353924         1.035423
 H         4.599765         2.312077        -0.370817
 H         5.185415         1.295989         0.952183
 H         3.452483         1.079341        -1.856456
 H         1.448330         0.012186        -2.283517
 H         2.048909        -1.524276        -1.817978
