19
Iteration:  2727charge 0 multiplicity 1
 C         0.037256        -0.472303         0.299260
 C         1.432510        -0.166923        -0.028211
 C         2.602616        -0.273716         1.076058
 C         3.091893         0.826471         0.244296
 C         4.576648         1.149217         0.203116
 O         4.788475         0.124289        -0.903180
 C         3.411332         0.317991        -1.208172
 C         2.237985        -0.636698        -1.371667
 O         1.668748         1.279735         0.107293
 H        -0.344700         0.052142         1.105411
 H        -0.742615        -0.437760        -0.459495
 H        -0.033322        -1.478179         0.791784
 H         2.239835         0.090708         2.019313
 H         3.008457        -1.236822         1.222709
 H         4.761604         2.170922        -0.086328
 H         5.163884         0.920202         1.172007
 H         3.185037         1.090666        -2.053042
 H         1.591472        -0.402987        -2.215857
 H         2.501680        -1.681216        -1.173350
