19
Iteration:  2942charge 0 multiplicity 1
 C         0.053741        -0.556548         0.269858
 C         1.443350        -0.099340         0.036742
 C         2.591727        -0.360786         0.991749
 C         3.133668         0.801289         0.167034
 C         4.584110         1.252718         0.203020
 O         4.876279         0.134926        -0.808800
 C         3.355873         0.234051        -1.172406
 C         2.030639        -0.619418        -1.279256
 O         1.734643         1.328209         0.032757
 H        -0.392265        -0.151084         1.191766
 H        -0.592699        -0.027380        -0.479982
 H         0.087854        -1.705005         0.242771
 H         2.339957        -0.063510         1.971921
 H         3.071947        -1.310337         1.226672
 H         4.598614         2.241042        -0.206757
 H         5.187292         1.238475         1.149643
 H         3.479631         1.052069        -1.847658
 H         1.216182        -0.349617        -2.009544
 H         2.244138        -1.678133        -1.255258
