19
Iteration:  2150
 C        -0.014376        -0.499289         0.338396
 C         1.489115        -0.225505        -0.006476
 C         2.642406        -0.352827         0.986884
 C         3.113594         0.814431         0.177816
 C         4.604851         1.175169         0.256159
 O         4.737638         0.146639        -0.827139
 C         3.341995         0.379933        -1.214481
 C         2.149497        -0.614854        -1.338479
 O         1.726089         1.293399         0.080462
 H        -0.036985        -0.002705         1.293873
 H        -0.608726         0.029119        -0.419513
 H        -0.261972        -1.649471         0.450667
 H         2.334839         0.160360         1.941049
 H         3.101957        -1.375768         1.167830
 H         5.077624         2.101985        -0.264973
 H         5.030719         1.016753         1.216099
 H         3.279039         1.070332        -2.020669
 H         1.611922        -0.433402        -2.235959
 H         2.452261        -1.603041        -1.409304
