19
Iteration:  4593charge 0 multiplicity 1
 C        -0.042255        -0.507591         0.315321
 C         1.457254        -0.243287         0.037156
 C         2.593807        -0.398626         1.051572
 C         3.114888         0.835017         0.219109
 C         4.627745         1.197185         0.181223
 O         4.818489         0.124147        -0.806844
 C         3.310663         0.335106        -1.169353
 C         2.168459        -0.603348        -1.379595
 O         1.734806         1.381437         0.040514
 H        -0.469601         0.230836         1.068926
 H        -0.583005        -0.557676        -0.603682
 H        -0.052217        -1.492514         0.629419
 H         2.446510        -0.013244         2.138435
 H         3.014447        -1.390120         1.135806
 H         5.000056         2.080143        -0.474892
 H         5.284706         1.316087         1.006674
 H         3.320002         1.131345        -1.927981
 H         1.491866        -0.509065        -2.199502
 H         2.256348        -1.776089        -1.404837
