19
Iteration:  4203
 C         0.035599        -0.670504         0.372140
 C         1.355780        -0.124814        -0.025412
 C         2.545186        -0.335039         0.970758
 C         3.150774         0.883964         0.154482
 C         4.584149         1.186320         0.172916
 O         4.801855         0.156222        -0.770308
 C         3.415270         0.310267        -1.201026
 C         2.099475        -0.671975        -1.276711
 O         1.787425         1.444317         0.015560
 H        -0.152830        -0.467337         1.440655
 H        -0.735725        -0.266344        -0.212566
 H        -0.022829        -1.730596         0.309511
 H         2.416336        -0.003957         2.045974
 H         2.840216        -1.398231         1.055697
 H         4.876227         2.193987        -0.140531
 H         5.090084         0.897677         1.187960
 H         3.328043         1.027023        -1.982618
 H         1.708742        -0.482876        -2.204026
 H         2.317849        -1.825111        -1.263524
