19
Iteration:  4354
 C        -0.010276        -0.548617         0.270577
 C         1.438397        -0.212632         0.065630
 C         2.660358        -0.306587         1.016206
 C         3.134020         0.887315         0.157913
 C         4.639045         1.234207         0.115267
 O         4.760426         0.061782        -0.713544
 C         3.328016         0.337289        -1.188225
 C         2.179694        -0.635750        -1.332116
 O         1.680302         1.354159         0.065926
 H        -0.480524        -0.388579         1.283277
 H        -0.732237        -0.011930        -0.317963
 H        -0.126812        -1.587026         0.019484
 H         2.457973         0.027557         2.042125
 H         3.250218        -1.201082         0.911638
 H         4.813117         2.232334        -0.271633
 H         5.163426         1.035600         1.060685
 H         3.432050         0.933466        -2.076619
 H         1.564739        -0.568090        -2.164688
 H         2.501298        -1.707033        -1.212746
