19
Iteration:  3283
 C        -0.033086        -0.501660         0.225302
 C         1.452172        -0.207424         0.037199
 C         2.717722        -0.308349         1.074403
 C         3.091202         0.894013         0.131054
 C         4.571801         1.215657         0.156588
 O         4.764034         0.079154        -0.774939
 C         3.333202         0.305975        -1.242259
 C         2.201608        -0.647508        -1.262584
 O         1.696749         1.299856         0.127460
 H        -0.515014        -0.003530         1.053119
 H        -0.428742        -0.096535        -0.683604
 H        -0.168077        -1.570290         0.335483
 H         2.630974         0.261102         1.984686
 H         3.222888        -1.177467         1.088419
 H         4.914385         2.173230        -0.149025
 H         5.183269         0.988887         1.051584
 H         3.251407         0.868834        -2.197215
 H         1.605871        -0.271318        -2.037053
 H         2.240615        -1.767595        -1.347239
