19
Iteration:  4078charge 0 multiplicity 1
 C        -0.069637        -0.529096         0.387583
 C         1.426449        -0.130943        -0.026441
 C         2.608532        -0.329401         1.070762
 C         3.135669         0.814660         0.251034
 C         4.604335         1.160350         0.208644
 O         4.795157         0.205575        -0.882639
 C         3.376030         0.382962        -1.153474
 C         2.243140        -0.703285        -1.331037
 O         1.706043         1.270652        -0.014863
 H        -0.479192        -0.012673         1.226341
 H        -0.824878        -0.117773        -0.334273
 H        -0.247746        -1.618166         0.248661
 H         2.403822        -0.146410         2.148302
 H         3.089198        -1.344379         0.957569
 H         4.922085         2.241955        -0.221714
 H         5.226087         1.015615         1.084916
 H         3.263331         1.155515        -1.976241
 H         1.492798        -0.585645        -2.291628
 H         2.570902        -1.707574        -1.198361
