19
Iteration:   459
 C         0.015277        -0.499869         0.248540
 C         1.474363        -0.226475         0.141544
 C         2.629271        -0.371833         1.046319
 C         3.088480         0.849882         0.164177
 C         4.612290         1.063647         0.238865
 O         4.762833         0.252898        -0.984043
 C         3.270516         0.445952        -1.216943
 C         2.240936        -0.648332        -1.302517
 O         1.700665         1.270294         0.152337
 H        -0.362058        -0.009276         1.041790
 H        -0.470780        -0.063701        -0.657018
 H        -0.367425        -1.581936         0.388335
 H         2.452803         0.105500         2.026760
 H         3.057336        -1.375799         1.107859
 H         5.145036         2.071729         0.123539
 H         4.943979         0.635609         1.116729
 H         3.142491         1.136107        -2.019354
 H         1.598138        -0.566727        -2.195823
 H         2.796541        -1.593612        -1.295938
