19
Iteration:  1024charge 0 multiplicity 1
 C        -0.107705        -0.582003         0.324891
 C         1.373842        -0.152440         0.020163
 C         2.578981        -0.360171         1.010294
 C         3.131004         0.749912         0.197553
 C         4.542103         1.206288         0.182963
 O         4.854500         0.159716        -0.855599
 C         3.407179         0.397228        -1.196895
 C         2.192710        -0.578041        -1.337123
 O         1.764915         1.299709         0.116196
 H        -0.343627        -0.379154         1.286328
 H        -0.845392        -0.256006        -0.389869
 H        -0.078870        -1.704635         0.281882
 H         2.365194        -0.041627         2.090243
 H         3.249018        -1.278925         1.029526
 H         4.729545         2.143804        -0.257120
 H         5.328498         1.071264         1.067188
 H         3.467908         1.317482        -1.701048
 H         1.566207        -0.302700        -2.255235
 H         2.560966        -1.607335        -1.572413
