19
Iteration:  1235charge 0 multiplicity 1
 C         0.074186        -0.548521         0.266817
 C         1.474412        -0.169900         0.001159
 C         2.649275        -0.342823         0.919906
 C         3.104468         0.942284         0.166561
 C         4.628552         1.238967         0.187827
 O         4.698359         0.079417        -0.755461
 C         3.395193         0.286400        -1.193958
 C         2.134193        -0.616254        -1.369114
 O         1.645961         1.295153         0.222987
 H        -0.301642        -0.417419         1.342920
 H        -0.475704         0.035617        -0.396306
 H        -0.053957        -1.576957        -0.017021
 H         2.377342        -0.023746         1.949366
 H         3.392027        -1.207303         0.983517
 H         4.984903         2.112362        -0.391311
 H         5.244397         1.214613         1.212888
 H         3.354112         0.945765        -1.991943
 H         1.617354        -0.328802        -2.353198
 H         2.150060        -1.748424        -1.390994
