19
Iteration:  1080charge 0 multiplicity 1
 C        -0.030568        -0.599257         0.338375
 C         1.438478        -0.151864         0.030998
 C         2.655905        -0.362347         0.998049
 C         3.119910         0.791271         0.148100
 C         4.577687         1.275950         0.258677
 O         4.762279         0.110807        -0.785897
 C         3.370103         0.348985        -1.227379
 C         2.175551        -0.577880        -1.422109
 O         1.688435         1.315673         0.128693
 H        -0.332909        -0.319750         1.321969
 H        -0.506572         0.076313        -0.302251
 H        -0.196713        -1.655993         0.029477
 H         2.413843        -0.095686         2.071366
 H         3.355801        -1.262464         0.891153
 H         4.918181         2.104731        -0.318990
 H         5.213835         0.982604         1.252235
 H         3.352532         1.166060        -1.953134
 H         1.663786        -0.392381        -2.454520
 H         2.543991        -1.643643        -1.343450
