19
Iteration:  3410
 C        -0.033330        -0.514971         0.217706
 C         1.471322        -0.188835         0.027625
 C         2.525727        -0.356338         1.064048
 C         3.108150         0.827408         0.206140
 C         4.571161         1.185549         0.116819
 O         4.834279         0.159982        -0.855985
 C         3.383606         0.255869        -1.193919
 C         2.202555        -0.630178        -1.306474
 O         1.747603         1.380611         0.175893
 H        -0.456316         0.093325         1.004094
 H        -0.608799        -0.281807        -0.720832
 H        -0.088989        -1.624461         0.528859
 H         2.230016         0.028862         2.011933
 H         3.124140        -1.274142         1.344588
 H         4.627965         2.052174        -0.574878
 H         5.178509         1.299020         0.958810
 H         3.274165         1.013951        -1.914038
 H         1.554669        -0.747719        -2.129672
 H         2.436309        -1.666810        -1.037883
