19
Iteration:  4824charge 0 multiplicity 1
 C         0.007904        -0.485207         0.304691
 C         1.415682        -0.190030        -0.008943
 C         2.685080        -0.341702         1.036358
 C         3.123140         0.811039         0.171977
 C         4.613502         1.182141         0.262203
 O         4.766373         0.132359        -0.867710
 C         3.391662         0.400619        -1.203606
 C         2.160744        -0.623001        -1.309383
 O         1.679928         1.258200         0.057118
 H        -0.509930         0.173931         1.127855
 H        -0.753505        -0.251819        -0.492547
 H        -0.231449        -1.494037         0.628099
 H         2.490106         0.281844         1.908548
 H         3.228188        -1.305306         1.072962
 H         4.940868         2.215462         0.051289
 H         5.026471         0.782346         1.128086
 H         3.301717         1.174377        -1.961789
 H         1.472488        -0.682475        -2.205507
 H         2.450672        -1.709932        -1.160585
