19
Iteration:   535charge 0 multiplicity 1
 C         0.098660        -0.589164         0.376937
 C         1.458811        -0.231498        -0.043328
 C         2.569241        -0.380332         0.970971
 C         3.103755         0.776173         0.157456
 C         4.581581         1.232264         0.189763
 O         4.912124         0.146566        -0.771742
 C         3.337606         0.291804        -1.161977
 C         2.021097        -0.521173        -1.489540
 O         1.705503         1.371439         0.190789
 H        -0.058723        -0.377062         1.332949
 H        -0.682566        -0.096579        -0.258717
 H        -0.113750        -1.731973         0.299098
 H         2.314725        -0.021169         1.980910
 H         3.164245        -1.308971         1.007869
 H         4.744254         2.212107        -0.245731
 H         5.123035         1.082054         1.061523
 H         3.311783         1.093865        -1.753798
 H         1.468795         0.049017        -2.310711
 H         2.128836        -1.645223        -1.647185
