19
Iteration:  4233charge 0 multiplicity 1
 C         0.039651        -0.505312         0.271184
 C         1.421266        -0.165860        -0.000769
 C         2.699281        -0.302231         1.008143
 C         3.133579         0.908271         0.180597
 C         4.586184         1.191076         0.135103
 O         4.749682         0.088590        -0.749735
 C         3.393686         0.336765        -1.220318
 C         2.138442        -0.670054        -1.299339
 O         1.629454         1.288698         0.116295
 H        -0.328263        -0.093896         1.249151
 H        -0.621289        -0.167395        -0.553940
 H        -0.063891        -1.582504         0.453402
 H         2.470365         0.094036         1.973430
 H         3.248115        -1.270862         1.084312
 H         4.849495         2.166765        -0.373283
 H         5.083792         0.934976         1.086650
 H         3.499089         1.128684        -1.980371
 H         1.737524        -0.535761        -2.314867
 H         2.435544        -1.741294        -1.210723
