19
Iteration:  1379charge 0 multiplicity 1
 C        -0.079215        -0.592170         0.281968
 C         1.434281        -0.159076         0.082770
 C         2.609909        -0.424567         1.005338
 C         3.108685         0.824046         0.201669
 C         4.521798         1.258441         0.152572
 O         4.776652         0.122286        -0.815397
 C         3.427375         0.321581        -1.239584
 C         2.188430        -0.576193        -1.305699
 O         1.774779         1.382773         0.130695
 H        -0.437213        -0.559965         1.380577
 H        -0.621080         0.073860        -0.463259
 H        -0.141601        -1.563946        -0.022056
 H         2.421127        -0.073565         2.074023
 H         3.291722        -1.305792         0.852990
 H         4.729586         2.170071        -0.214597
 H         5.279626         1.007101         1.001414
 H         3.514435         0.941186        -2.070369
 H         1.592824        -0.383358        -2.240455
 H         2.339202        -1.725662        -1.315245
