19
Iteration:  2753
 C         0.000811        -0.601842         0.279294
 C         1.381734        -0.175866        -0.020886
 C         2.533864        -0.361234         1.008739
 C         3.119116         0.863176         0.232103
 C         4.638236         1.214565         0.140620
 O         4.839582         0.166747        -0.814637
 C         3.326780         0.341076        -1.177744
 C         2.089279        -0.707907        -1.290202
 O         1.869460         1.434797         0.069521
 H        -0.519814        -0.246065         1.278010
 H        -0.821811        -0.384876        -0.469624
 H         0.024292        -1.692537         0.500495
 H         2.315537        -0.185587         2.088186
 H         2.750733        -1.420543         0.992884
 H         4.793016         2.292525        -0.108820
 H         5.102479         1.019679         1.028960
 H         3.218776         0.985419        -1.994654
 H         1.534827        -0.641946        -2.262224
 H         2.515905        -1.723285        -1.026470
