19
Iteration:   607
 C         0.007222        -0.570578         0.173242
 C         1.435078        -0.146346         0.073341
 C         2.541200        -0.418092         1.071599
 C         3.187400         0.704806         0.279616
 C         4.634314         1.280960         0.107696
 O         4.806985         0.219947        -0.942791
 C         3.331355         0.316038        -1.122628
 C         2.097538        -0.599833        -1.340386
 O         1.786256         1.302364         0.189123
 H        -0.511134        -0.364118         1.243792
 H        -0.606911        -0.133946        -0.606428
 H        -0.100657        -1.643860         0.049969
 H         2.257134        -0.018708         2.052764
 H         2.947619        -1.427577         1.214374
 H         4.802080         2.238005        -0.443060
 H         5.266656         1.168182         1.104957
 H         3.076577         1.345437        -1.692656
 H         1.629610        -0.175633        -2.189041
 H         2.271799        -1.667573        -1.412940
