19
Iteration:  4513
 C         0.060076        -0.490366         0.218468
 C         1.484383        -0.175815         0.080777
 C         2.637091        -0.282282         1.060241
 C         3.091602         0.878940         0.204924
 C         4.574321         1.257133         0.109106
 O         4.747247         0.046173        -0.766566
 C         3.345236         0.289701        -1.229657
 C         2.192363        -0.666946        -1.332621
 O         1.675773         1.307291         0.150490
 H        -0.278871        -0.341922         1.184819
 H        -0.364732         0.263573        -0.437715
 H        -0.156411        -1.501984        -0.121447
 H         2.265046        -0.102926         2.038894
 H         3.169416        -1.248360         0.897178
 H         4.788706         2.211892        -0.442566
 H         5.210084         0.940752         0.913442
 H         3.417343         1.098375        -1.951090
 H         1.398756        -0.536813        -2.141232
 H         2.486485        -1.682709        -1.238733
