19
Iteration:   976charge 0 multiplicity 1
 C        -0.069431        -0.528321         0.160019
 C         1.440542        -0.164780         0.104245
 C         2.706624        -0.440914         1.019376
 C         3.118825         0.825021         0.204112
 C         4.527422         1.190973         0.177035
 O         4.746629         0.166998        -0.870579
 C         3.317177         0.347892        -1.197123
 C         2.226948        -0.607467        -1.312015
 O         1.774755         1.332207         0.203527
 H        -0.609699         0.054523         1.003921
 H        -0.443953        -0.225135        -0.844987
 H        -0.339098        -1.535518         0.280409
 H         2.477379        -0.200603         2.036810
 H         3.204299        -1.388328         0.912027
 H         4.639498         2.345315        -0.217584
 H         5.233636         1.103643         0.955300
 H         3.513681         1.148316        -1.895977
 H         1.676520        -0.655891        -2.197286
 H         2.415950        -1.620102        -1.051112
