19
Iteration:  3193charge 0 multiplicity 1
 C        -0.000426        -0.458668         0.268026
 C         1.449367        -0.188127         0.050514
 C         2.711887        -0.306172         1.025209
 C         3.064712         0.860167         0.147847
 C         4.567266         1.231004         0.230781
 O         4.753266         0.133291        -0.834003
 C         3.411139         0.273680        -1.160138
 C         2.139652        -0.696808        -1.263736
 O         1.703286         1.260409         0.034609
 H        -0.427294        -0.208523         1.175962
 H        -0.421083         0.232069        -0.447578
 H        -0.245474        -1.517205         0.192717
 H         2.559877         0.018510         2.023168
 H         3.331050        -1.164207         0.756806
 H         4.974939         2.236840         0.031391
 H         5.004417         1.036676         1.139275
 H         3.471561         0.987667        -2.086290
 H         1.678746        -0.219802        -2.186018
 H         1.971042        -1.805359        -1.219474
