19
Iteration:   992
 C         0.084374        -0.484239         0.129968
 C         1.459780        -0.129789        -0.025166
 C         2.573518        -0.438490         1.033878
 C         3.163325         0.784997         0.280761
 C         4.607652         1.297987         0.120944
 O         4.790380         0.169993        -0.852750
 C         3.309069         0.296297        -1.133213
 C         2.065407        -0.693609        -1.305665
 O         1.733709         1.315529         0.233720
 H        -0.348781         0.007959         0.983191
 H        -0.608745        -0.374850        -0.695389
 H         0.158421        -1.628203         0.276412
 H         2.261436        -0.102338         2.088605
 H         3.225287        -1.360555         0.908263
 H         4.780701         2.184420        -0.341259
 H         5.364274         1.177724         1.034121
 H         3.114024         1.213510        -1.766597
 H         1.481075        -0.214237        -2.189742
 H         2.356983        -1.788082        -1.433196
