19
Iteration:  4079
 C        -0.074581        -0.531371         0.387469
 C         1.421885        -0.130988        -0.022541
 C         2.606980        -0.324004         1.071430
 C         3.129656         0.811834         0.254039
 C         4.609087         1.159641         0.203941
 O         4.804991         0.210288        -0.884444
 C         3.370108         0.385947        -1.143873
 C         2.233979        -0.703630        -1.328520
 O         1.713116         1.266575        -0.019025
 H        -0.490778        -0.023518         1.208334
 H        -0.827170        -0.126093        -0.334878
 H        -0.253963        -1.606161         0.252482
 H         2.408967        -0.150752         2.129198
 H         3.109419        -1.377558         0.965596
 H         4.897578         2.251419        -0.202018
 H         5.269992         1.019185         1.053444
 H         3.298566         1.157064        -1.978129
 H         1.530655        -0.585593        -2.339650
 H         2.531334        -1.713607        -1.193336
