19
Iteration:  2288charge 0 multiplicity 1
 C         0.030809        -0.590887         0.306575
 C         1.394080        -0.136019         0.036842
 C         2.557064        -0.331942         0.980162
 C         3.208955         0.755968         0.154293
 C         4.617974         1.281402         0.170388
 O         4.917543         0.102690        -0.741450
 C         3.256813         0.279751        -1.260695
 C         2.080137        -0.609794        -1.337097
 O         1.734512         1.373460         0.117212
 H        -0.174320        -0.501067         1.443358
 H        -0.753555        -0.017136        -0.139284
 H        -0.219576        -1.655762         0.186705
 H         2.234071         0.069708         1.934475
 H         2.857851        -1.349012         1.137219
 H         4.837981         2.230494        -0.326887
 H         5.346226         1.145676         1.052410
 H         3.376268         1.114237        -1.947808
 H         1.558471        -0.193884        -2.283314
 H         2.087695        -1.761767        -1.501602
