19
Iteration:  2883
 C        -0.000033        -0.492351         0.238871
 C         1.525185        -0.154858         0.063410
 C         2.593997        -0.395168         1.089446
 C         3.071203         0.871629         0.206957
 C         4.650380         1.179660         0.153452
 O         4.754578         0.132771        -0.880850
 C         3.392129         0.293767        -1.144901
 C         2.215074        -0.620058        -1.261556
 O         1.634280         1.310239         0.047088
 H        -0.313977         0.232333         1.014204
 H        -0.530539        -0.413857        -0.731530
 H        -0.156539        -1.493592         0.569078
 H         2.275126         0.023822         2.069544
 H         3.218192        -1.226249         1.045534
 H         4.825624         2.214681        -0.304977
 H         5.173921         0.964536         1.051278
 H         3.206681         1.057105        -1.979022
 H         1.479861        -0.444766        -2.051098
 H         2.550670        -1.713325        -1.319664
