19
Iteration:  4448
 C         0.037916        -0.454751         0.308932
 C         1.498933        -0.156699        -0.051444
 C         2.550862        -0.329602         0.987896
 C         3.163657         0.814379         0.192448
 C         4.606938         1.206319         0.242967
 O         4.740456         0.182883        -0.801783
 C         3.306054         0.275715        -1.282297
 C         2.178470        -0.702888        -1.297617
 O         1.726842         1.300647         0.117037
 H        -0.217950         0.223798         1.056150
 H        -0.687037        -0.213582        -0.480444
 H        -0.062122        -1.497899         0.631341
 H         2.367290         0.120845         1.925243
 H         3.129592        -1.288110         0.875213
 H         4.841609         2.327407         0.046000
 H         5.114252         0.773917         1.104663
 H         3.226315         1.090767        -2.028878
 H         1.534018        -0.945333        -2.229182
 H         2.490361        -1.675060        -0.985152
