19
Iteration:  3560
 C        -0.031707        -0.527779         0.251828
 C         1.412542        -0.185202         0.029666
 C         2.600262        -0.363923         1.000710
 C         3.117323         0.859073         0.200542
 C         4.650717         1.267612         0.141774
 O         4.746138         0.122542        -0.839829
 C         3.377816         0.282885        -1.178939
 C         2.254363        -0.701153        -1.240719
 O         1.687055         1.404113         0.124433
 H        -0.295442        -0.006019         1.117668
 H        -0.553170        -0.242226        -0.675854
 H        -0.247052        -1.614590         0.285771
 H         2.235303        -0.233936         1.944204
 H         2.966254        -1.410728         0.793992
 H         4.938104         2.135416        -0.367351
 H         5.209606         1.072892         1.133433
 H         3.246141         1.157002        -1.913760
 H         1.574204        -0.744900        -2.115444
 H         2.745188        -1.630910        -1.040184
