19
Iteration:   585
 C         0.030051        -0.555954         0.218492
 C         1.517465        -0.226273        -0.006146
 C         2.643715        -0.393219         1.018987
 C         3.069940         0.867070         0.238568
 C         4.613771         1.121968         0.211375
 O         4.730821         0.180448        -0.893736
 C         3.315263         0.419137        -1.264956
 C         2.208809        -0.669585        -1.350026
 O         1.668274         1.396000         0.251417
 H        -0.158898        -0.296683         1.393093
 H        -0.616842         0.116832        -0.327044
 H        -0.359988        -1.551290         0.065233
 H         2.336931        -0.092243         2.028279
 H         3.322015        -1.254113         1.075874
 H         5.001000         2.119884        -0.111665
 H         5.280279         0.622185         1.056790
 H         3.221947         1.160315        -2.222836
 H         1.535638        -0.652212        -2.173146
 H         2.587388        -1.666374        -1.130898
