19
Iteration:  3003
 C         0.062409        -0.486658         0.251049
 C         1.461166        -0.098017         0.048826
 C         2.706608        -0.341079         0.975068
 C         3.081694         0.878428         0.154531
 C         4.586496         1.200585         0.213105
 O         4.714977         0.125754        -0.719350
 C         3.310927         0.323229        -1.216741
 C         2.126871        -0.756094        -1.342543
 O         1.736770         1.319952         0.078674
 H        -0.103705        -0.441119         1.346477
 H        -0.674097         0.102767        -0.252687
 H        -0.121373        -1.490703         0.091342
 H         2.295627         0.032577         1.958030
 H         3.226466        -1.265132         0.840371
 H         5.046173         2.176757        -0.212211
 H         5.061055         0.950283         1.088853
 H         3.319137         1.115109        -2.050639
 H         1.374051        -0.730100        -2.136897
 H         2.639220        -1.742650        -1.247609
