19
Iteration:   681
 C        -0.001831        -0.568501         0.388145
 C         1.463397        -0.238605         0.022009
 C         2.688894        -0.366009         0.914647
 C         3.073764         0.880100         0.158879
 C         4.586132         1.136010         0.239075
 O         4.742599         0.103047        -0.862107
 C         3.334942         0.449119        -1.193645
 C         2.237456        -0.586171        -1.328218
 O         1.681354         1.328071         0.071924
 H        -0.250289         0.077250         1.369337
 H        -0.620966        -0.128304        -0.332236
 H        -0.328917        -1.514793         0.513741
 H         2.538667        -0.100646         1.976933
 H         3.274786        -1.307142         0.863607
 H         4.853608         2.173803         0.122032
 H         4.971074         0.707551         1.162259
 H         3.299752         1.266108        -1.791938
 H         1.591529        -0.498683        -2.206147
 H         2.619406        -1.563587        -1.280679
