19
Iteration:  1137
 C        -0.032376        -0.510157         0.176229
 C         1.420001        -0.131306         0.045113
 C         2.665112        -0.415200         1.028191
 C         3.103665         0.813432         0.183112
 C         4.597011         1.183975         0.216975
 O         4.767646         0.207032        -0.862436
 C         3.294118         0.383993        -1.211921
 C         2.217080        -0.691829        -1.301569
 O         1.744357         1.302860         0.203167
 H        -0.614217         0.051315         1.055397
 H        -0.628982        -0.370123        -0.695507
 H        -0.079281        -1.548030         0.403225
 H         2.489945        -0.064104         2.043970
 H         3.248808        -1.356635         0.954357
 H         4.918947         2.202391        -0.160446
 H         5.262824         1.006137         1.157691
 H         3.202538         1.040091        -2.114807
 H         1.642994        -0.447854        -2.270692
 H         2.515212        -1.781743        -1.282617
