19
Iteration:  4942
 C         0.011417        -0.500397         0.358557
 C         1.409734        -0.097984        -0.072933
 C         2.489295        -0.411553         1.012859
 C         3.146330         0.841919         0.234011
 C         4.579075         1.229350         0.225486
 O         4.791702         0.135562        -0.866423
 C         3.393169         0.290388        -1.225327
 C         2.250225        -0.655324        -1.310925
 O         1.730488         1.321464         0.093876
 H        -0.343915         0.019679         1.294131
 H        -0.688464        -0.193809        -0.394195
 H         0.014507        -1.509147         0.498289
 H         2.079021         0.019647         1.942058
 H         2.985150        -1.371616         0.989024
 H         4.812182         2.293761        -0.141649
 H         5.169095         0.937612         1.074799
 H         3.402749         0.949651        -2.124254
 H         1.654639        -0.608377        -2.166231
 H         2.537754        -1.723366        -1.103293
