19
Iteration:  1357
 C         0.040836        -0.465318         0.158542
 C         1.470859        -0.204668         0.035343
 C         2.674629        -0.340731         0.972093
 C         3.143151         0.857760         0.158140
 C         4.634574         1.229796         0.185739
 O         4.782143         0.135842        -0.795331
 C         3.229019         0.375747        -1.208557
 C         2.157953        -0.697751        -1.321567
 O         1.670117         1.250325         0.248684
 H        -0.250396        -0.026686         1.207134
 H        -0.492158         0.040323        -0.711252
 H        -0.185410        -1.462231         0.234025
 H         2.407854         0.063134         2.005460
 H         3.247597        -1.311765         0.906812
 H         4.887079         2.060498        -0.288697
 H         5.255794         1.209964         1.165958
 H         3.202845         1.119594        -1.940407
 H         1.443940        -0.625251        -2.182857
 H         2.360311        -1.825102        -1.229653
