19
Iteration:  4381charge 0 multiplicity 1
 C         0.092164        -0.617252         0.258091
 C         1.405915        -0.130643         0.009752
 C         2.548915        -0.292651         1.025187
 C         3.182708         0.800180         0.128489
 C         4.544906         1.299545         0.122908
 O         4.795267         0.032613        -0.730490
 C         3.343701         0.228221        -1.203237
 C         2.129407        -0.607011        -1.314331
 O         1.766030         1.437306         0.164791
 H        -0.316611        -0.312639         1.179834
 H        -0.767988        -0.275329        -0.378321
 H         0.079295        -1.736776         0.127920
 H         2.314178        -0.077315         2.091982
 H         3.112501        -1.260287         0.818903
 H         4.794885         2.280751        -0.454983
 H         4.994495         1.408647         1.167734
 H         3.459121         0.834240        -2.127021
 H         1.501363        -0.374576        -2.303062
 H         2.206431        -1.686559        -1.215623
