19
Iteration:   599
 C         0.057795        -0.532139         0.212280
 C         1.436212        -0.252706         0.007537
 C         2.510030        -0.363146         1.034957
 C         3.141275         0.829784         0.220204
 C         4.669838         1.223409         0.149090
 O         4.761457         0.207665        -0.943341
 C         3.319685         0.334970        -1.150457
 C         2.133160        -0.619624        -1.296473
 O         1.776588         1.290562         0.258253
 H        -0.283820        -0.354920         1.173615
 H        -0.539753         0.012949        -0.565359
 H        -0.007781        -1.676691        -0.037446
 H         2.104597         0.009991         1.980821
 H         2.979640        -1.363205         1.129692
 H         4.806868         2.225507        -0.184839
 H         5.308621         1.057731         1.055262
 H         3.219050         1.208166        -1.873818
 H         1.561885        -0.298099        -2.244264
 H         2.355792        -1.757544        -1.421917
