19
Iteration:  4510charge 0 multiplicity 1
 C         0.065585        -0.465897         0.220545
 C         1.506955        -0.190094         0.076046
 C         2.607407        -0.275865         1.052888
 C         3.114132         0.871750         0.219841
 C         4.569564         1.277322         0.088902
 O         4.759977         0.045260        -0.763673
 C         3.353895         0.287828        -1.232120
 C         2.178188        -0.662078        -1.347174
 O         1.673487         1.295780         0.151106
 H        -0.388849        -0.459902         1.243714
 H        -0.405698         0.223048        -0.550533
 H        -0.179275        -1.546217        -0.111525
 H         2.301033        -0.113572         2.100983
 H         3.176928        -1.269581         0.994785
 H         4.812003         2.177403        -0.453064
 H         5.225080         0.918141         0.966979
 H         3.321358         1.160858        -1.917329
 H         1.352953        -0.493615        -2.081248
 H         2.427565        -1.687939        -1.161908
