19
Iteration:   254charge 0 multiplicity 1
 C         0.037798        -0.432026         0.246570
 C         1.495137        -0.152926        -0.044969
 C         2.719452        -0.448869         0.999504
 C         3.123941         0.830868         0.216676
 C         4.600307         1.338125         0.146565
 O         4.745741         0.137644        -0.825959
 C         3.317748         0.273125        -1.191801
 C         2.130636        -0.706901        -1.331006
 O         1.641035         1.297778         0.242118
 H        -0.117818        -0.146437         1.209516
 H        -0.678727         0.161157        -0.485121
 H        -0.195428        -1.536481         0.177084
 H         2.442802        -0.372622         2.028971
 H         3.434805        -1.220966         0.817334
 H         4.883897         2.338478        -0.333558
 H         5.119956         1.207837         1.015878
 H         3.240250         0.945095        -2.007106
 H         1.557078        -0.544444        -2.225969
 H         2.348318        -1.734190        -1.176602
