19
Iteration:   467
 C         0.012019        -0.486957         0.183434
 C         1.444025        -0.215078         0.070120
 C         2.737568        -0.341340         1.023292
 C         3.067909         0.838689         0.141184
 C         4.635460         1.124342         0.249196
 O         4.690030         0.227152        -0.936410
 C         3.306946         0.382989        -1.235055
 C         2.228258        -0.650124        -1.328139
 O         1.663129         1.263562         0.239540
 H        -0.173648         0.164242         1.129380
 H        -0.487014        -0.144039        -0.680425
 H        -0.148075        -1.551729         0.448201
 H         2.591616         0.247286         1.972297
 H         3.270357        -1.299078         1.189069
 H         5.153771         2.014247         0.168717
 H         5.031347         0.514515         1.182601
 H         3.107629         1.131558        -1.949475
 H         1.512014        -0.500646        -2.221094
 H         2.625374        -1.774202        -1.169360
