19
Iteration:  4655charge 0 multiplicity 1
 C        -0.001471        -0.521705         0.261617
 C         1.446833        -0.211492         0.060065
 C         2.604639        -0.325558         1.046421
 C         3.096488         0.838828         0.221449
 C         4.634065         1.196652         0.180038
 O         4.810530         0.124833        -0.864993
 C         3.377291         0.296168        -1.175237
 C         2.148726        -0.562180        -1.265271
 O         1.748617         1.294756         0.027425
 H        -0.436787        -0.079441         1.207315
 H        -0.634316        -0.131296        -0.560066
 H        -0.255370        -1.664424         0.401517
 H         2.197598         0.058972         2.043719
 H         3.003603        -1.349941         0.986845
 H         4.650293         2.137584        -0.378307
 H         5.179575         1.127217         1.113564
 H         3.275441         1.103300        -1.917752
 H         1.457252        -0.327653        -2.129899
 H         2.273198        -1.636600        -1.145406
