19
Iteration:  3805
 C         0.015965        -0.570547         0.311436
 C         1.423790        -0.069005         0.004899
 C         2.524344        -0.383763         1.015273
 C         3.165480         0.812244         0.180555
 C         4.616399         1.255759         0.124414
 O         4.785375         0.174345        -0.779489
 C         3.399078         0.279780        -1.207200
 C         2.100826        -0.684224        -1.347309
 O         1.761440         1.354534         0.122175
 H        -0.335069        -0.270580         1.358312
 H        -0.743410        -0.209322        -0.380512
 H         0.042529        -1.673192         0.413994
 H         2.225645        -0.033359         2.108899
 H         2.980025        -1.368069         1.106708
 H         4.818236         2.252634        -0.326601
 H         5.094741         1.139493         1.015513
 H         3.493096         0.978485        -2.089240
 H         1.641401        -0.748388        -2.322124
 H         2.412197        -1.725051        -1.181180
