19
Iteration:  3225
 C        -0.037255        -0.467432         0.389011
 C         1.393524        -0.174071        -0.055905
 C         2.487742        -0.333043         1.028956
 C         3.068025         0.775113         0.229456
 C         4.588911         1.237464         0.184049
 O         4.892383         0.129371        -0.883037
 C         3.367664         0.352251        -1.214212
 C         2.272979        -0.753375        -1.342545
 O         1.751510         1.367461         0.117417
 H        -0.402281         0.016238         1.250155
 H        -0.727627        -0.187148        -0.450806
 H        -0.209832        -1.568576         0.394705
 H         2.328586        -0.086541         2.057714
 H         2.929089        -1.370900         1.192855
 H         4.623158         2.279847        -0.347193
 H         5.183906         1.124337         1.025904
 H         3.445760         1.261394        -1.963407
 H         1.694829        -0.769807        -2.339805
 H         2.465606        -1.807732        -1.026653
