19
Iteration:  4954charge 0 multiplicity 1
 C         0.007280        -0.520212         0.264147
 C         1.431012        -0.145408         0.006007
 C         2.524337        -0.316870         1.005082
 C         3.089478         0.762810         0.188546
 C         4.623974         1.196610         0.186343
 O         4.846260         0.169380        -0.812065
 C         3.385914         0.315082        -1.175066
 C         2.113622        -0.718187        -1.327634
 O         1.763117         1.376526         0.096742
 H        -0.200186         0.101710         1.224408
 H        -0.769941        -0.488249        -0.504504
 H         0.002111        -1.514509         0.591440
 H         2.373000        -0.197377         2.065657
 H         2.980032        -1.337986         1.001121
 H         4.760135         2.252726        -0.261299
 H         5.205163         1.094232         1.049801
 H         3.184733         1.230747        -1.756961
 H         1.766211        -0.456226        -2.313757
 H         2.172348        -1.821276        -1.250189
