19
Iteration:  3972
 C        -0.004055        -0.505739         0.305742
 C         1.430687        -0.158296         0.068442
 C         2.578218        -0.327720         1.009023
 C         3.068268         0.818406         0.113533
 C         4.575584         1.192672         0.208675
 O         4.800894         0.165115        -0.826917
 C         3.346660         0.364457        -1.265809
 C         2.269602        -0.711988        -1.286462
 O         1.714975         1.335479         0.118893
 H        -0.264749        -0.129530         1.291442
 H        -0.618530        -0.121243        -0.552696
 H        -0.109787        -1.598807         0.464630
 H         2.272832        -0.206442         2.022529
 H         3.280006        -1.269204         0.971560
 H         4.814297         2.195841        -0.103073
 H         5.177588         0.848786         1.058889
 H         3.169122         1.149970        -2.064144
 H         1.674927        -0.701829        -2.270267
 H         2.497513        -1.751846        -1.157127
