19
Iteration:  3116charge 0 multiplicity 1
 C        -0.042422        -0.502342         0.319505
 C         1.472264        -0.192859         0.014031
 C         2.635756        -0.319939         1.015448
 C         3.093659         0.860272         0.172092
 C         4.666356         1.202768         0.241453
 O         4.791098         0.141279        -0.802838
 C         3.351216         0.314847        -1.206024
 C         2.107408        -0.635653        -1.290322
 O         1.729057         1.296264         0.024900
 H        -0.280938        -0.025287         1.222842
 H        -0.714656        -0.370309        -0.546888
 H        -0.122523        -1.616158         0.357393
 H         2.196669         0.101236         1.879843
 H         3.154174        -1.292411         1.097765
 H         5.038117         2.170407        -0.217396
 H         5.188388         0.884605         1.146012
 H         3.434536         1.111734        -2.058866
 H         1.292441        -0.505725        -2.103541
 H         2.409335        -1.700567        -1.352659
