19
Iteration:  2925
 C         0.021027        -0.541856         0.214314
 C         1.399494        -0.178658         0.049044
 C         2.623271        -0.321910         1.027437
 C         3.078163         0.840835         0.159079
 C         4.548509         1.248850         0.158853
 O         4.772650         0.128047        -0.812961
 C         3.377707         0.251505        -1.212870
 C         2.173939        -0.697020        -1.280504
 O         1.787807         1.416179         0.180164
 H        -0.474412        -0.028479         1.036753
 H        -0.645566        -0.360491        -0.643674
 H        -0.101149        -1.596983         0.341059
 H         2.378360        -0.110936         2.146994
 H         3.229222        -1.306020         1.000648
 H         4.912265         2.189884        -0.358670
 H         5.133696         1.026966         1.087728
 H         3.335801         0.983962        -2.116850
 H         1.784208        -0.433661        -2.245901
 H         2.143684        -1.806469        -1.330146
