19
Iteration:  4693
 C        -0.009193        -0.530827         0.349036
 C         1.442624        -0.158312         0.004813
 C         2.561008        -0.353870         0.939875
 C         3.085862         0.872912         0.131504
 C         4.569126         1.179574         0.198333
 O         4.817260         0.128483        -0.827845
 C         3.408044         0.299834        -1.177272
 C         2.168977        -0.686043        -1.318008
 O         1.739826         1.385597         0.108550
 H        -0.063114        -0.557289         1.440260
 H        -0.775494         0.128385        -0.107401
 H        -0.243304        -1.514885        -0.004055
 H         2.074853         0.017824         1.902484
 H         3.062222        -1.304242         1.259142
 H         4.834293         2.282937        -0.198510
 H         5.282840         0.972342         1.073623
 H         3.334749         1.147965        -1.900874
 H         1.675487        -0.617091        -2.292539
 H         2.515406        -1.776110        -1.035199
