19
Iteration:  1611charge 0 multiplicity 1
 C        -0.049274        -0.645680         0.298621
 C         1.404288        -0.198809         0.002853
 C         2.605824        -0.385980         0.940019
 C         3.134314         0.857736         0.204431
 C         4.676587         1.216774         0.157509
 O         4.775958         0.147129        -0.723822
 C         3.350959         0.318184        -1.220318
 C         2.114768        -0.630705        -1.353891
 O         1.762333         1.422981         0.157695
 H        -0.266477        -0.404471         1.248500
 H        -0.721986        -0.102209        -0.376507
 H        -0.207029        -1.633295         0.160190
 H         2.457804        -0.019317         1.964374
 H         3.151743        -1.347153         0.884577
 H         4.898769         2.144047        -0.272898
 H         5.360266         1.249395         1.046741
 H         3.438576         0.963906        -2.040390
 H         1.514346        -0.174392        -2.196896
 H         2.238956        -1.692804        -1.531705
