19
Iteration:  2523charge 0 multiplicity 1
 C        -0.025799        -0.508247         0.279382
 C         1.454571        -0.142344         0.038489
 C         2.670394        -0.324044         0.952045
 C         3.086701         0.835356         0.118111
 C         4.576070         1.173192         0.263085
 O         4.726093         0.114352        -0.848179
 C         3.341419         0.337308        -1.229169
 C         2.211671        -0.615734        -1.282597
 O         1.761388         1.297785         0.162157
 H        -0.556506         0.130104         0.970405
 H        -0.649554        -0.382771        -0.652201
 H        -0.074688        -1.545231         0.596014
 H         2.413783        -0.147434         2.046602
 H         3.381181        -1.252173         0.890451
 H         4.896882         2.223542        -0.166942
 H         5.115795         0.977004         1.180937
 H         3.186453         1.200580        -2.018860
 H         1.690643        -0.662568        -2.232245
 H         2.343305        -1.718581        -1.137234
