19
Iteration:  4384
 C         0.092880        -0.602066         0.261502
 C         1.423000        -0.131353         0.015781
 C         2.532071        -0.312403         1.023756
 C         3.175530         0.819716         0.139994
 C         4.567444         1.290073         0.102850
 O         4.811494         0.047159        -0.715529
 C         3.318031         0.217277        -1.198076
 C         2.120139        -0.604896        -1.336255
 O         1.752915         1.434405         0.149828
 H        -0.269487        -0.333017         1.299917
 H        -0.707585        -0.307879        -0.499798
 H         0.149812        -1.715037         0.162048
 H         2.399821        -0.106058         2.049371
 H         3.050095        -1.287780         0.908917
 H         4.727540         2.295495        -0.306744
 H         5.002610         1.320213         1.035088
 H         3.531549         0.832508        -2.111789
 H         1.444700        -0.377390        -2.224171
 H         2.221086        -1.657603        -1.199204
