19
Iteration:  3062
 C        -0.022765        -0.553235         0.239156
 C         1.487854        -0.126871         0.012190
 C         2.576126        -0.381256         1.004864
 C         3.151450         0.776921         0.275826
 C         4.615945         1.308934         0.164952
 O         4.697942         0.133024        -0.829770
 C         3.344666         0.294817        -1.133322
 C         2.174026        -0.702953        -1.330623
 O         1.804308         1.380757         0.085449
 H        -0.218492         0.225373         0.973877
 H        -0.751246        -0.341233        -0.630614
 H        -0.153237        -1.652980         0.636866
 H         2.182301        -0.098438         1.945157
 H         2.927562        -1.415115         1.184680
 H         4.796682         2.312026        -0.415071
 H         5.426835         0.992088         0.943286
 H         3.186715         1.171587        -1.902781
 H         1.400342        -0.596573        -2.229300
 H         2.569114        -1.729790        -1.220288
