19
Iteration:  3589charge 0 multiplicity 1
 C         0.057815        -0.466985         0.273024
 C         1.459082        -0.202658        -0.006463
 C         2.648710        -0.282648         1.084520
 C         3.123943         0.787998         0.226417
 C         4.563188         1.162881         0.230754
 O         4.778197         0.197078        -0.880025
 C         3.361904         0.294055        -1.223216
 C         2.181503        -0.717386        -1.330832
 O         1.672941         1.327334         0.073805
 H        -0.397035         0.212926         1.044844
 H        -0.522895        -0.136319        -0.638072
 H        -0.089217        -1.532403         0.470154
 H         2.044630         0.062520         1.992501
 H         3.127358        -1.272195         1.192152
 H         4.830740         2.218522        -0.079952
 H         5.140566         0.934581         1.122783
 H         3.178039         1.184312        -1.813765
 H         1.394202        -0.786124        -2.189208
 H         2.651155        -1.697901        -1.085232
