19
Iteration:   709
 C         0.098035        -0.677459         0.333227
 C         1.428751        -0.050525        -0.041951
 C         2.541284        -0.299096         0.999907
 C         3.112004         0.827316         0.205580
 C         4.679750         1.128881         0.158373
 O         4.873140         0.150358        -0.813267
 C         3.373820         0.325417        -1.189197
 C         2.012504        -0.583832        -1.335827
 O         1.695766         1.353213         0.112945
 H        -0.047996        -0.588407         1.351110
 H        -0.926963        -0.420865        -0.150496
 H         0.290589        -1.855497         0.087471
 H         2.195328         0.085236         1.972770
 H         3.101277        -1.238156         1.096213
 H         4.780063         2.242444        -0.099306
 H         5.188133         0.886814         1.148857
 H         3.331543         1.275601        -1.948504
 H         1.348461        -0.279022        -2.220797
 H         2.015136        -1.726737        -1.423372
