19
Iteration:   974
 C        -0.082492        -0.529910         0.159313
 C         1.435018        -0.179645         0.123211
 C         2.713444        -0.462168         1.019607
 C         3.121770         0.837183         0.182262
 C         4.527229         1.193911         0.188621
 O         4.747643         0.164561        -0.870599
 C         3.316717         0.358977        -1.210286
 C         2.241272        -0.611676        -1.301499
 O         1.768423         1.345863         0.199969
 H        -0.637433         0.119201         1.049694
 H        -0.479498        -0.219385        -0.803133
 H        -0.422563        -1.588403         0.260861
 H         2.478250        -0.159113         2.006214
 H         3.179690        -1.418566         0.915922
 H         4.679621         2.348827        -0.176409
 H         5.232924         1.056690         0.923761
 H         3.578917         1.169173        -1.942213
 H         1.667802        -0.647209        -2.218018
 H         2.517156        -1.625585        -1.044854
