19
Iteration:  1395
 C         0.017251        -0.622179         0.328488
 C         1.428410        -0.137029        -0.002343
 C         2.558727        -0.353556         0.965266
 C         3.117729         0.793341         0.198471
 C         4.619519         1.220725         0.199114
 O         4.861407         0.131055        -0.794506
 C         3.343161         0.287225        -1.141140
 C         2.068618        -0.632644        -1.354161
 O         1.769576         1.406011         0.080322
 H        -0.073799        -0.563318         1.379498
 H        -0.842851         0.005785        -0.057409
 H        -0.055534        -1.688769        -0.223286
 H         2.408833        -0.179274         1.991961
 H         2.987313        -1.336066         0.967090
 H         4.689993         2.281603        -0.439452
 H         5.144338         1.256823         1.119020
 H         3.232381         1.332973        -1.755823
 H         1.587230        -0.229371        -2.241380
 H         2.317301        -1.662455        -1.463915
