19
Iteration:  3517charge 0 multiplicity 1
 C         0.049834        -0.566847         0.304077
 C         1.462938        -0.194945         0.075071
 C         2.591968        -0.383735         1.070796
 C         3.131107         0.859035         0.168971
 C         4.523836         1.332255         0.171825
 O         4.814379         0.071456        -0.762823
 C         3.423956         0.250045        -1.171340
 C         2.052536        -0.622192        -1.329695
 O         1.745783         1.350328        -0.016258
 H        -0.399792        -0.316362         1.229588
 H        -0.522994         0.037592        -0.415070
 H        -0.133775        -1.652336         0.049004
 H         2.374492         0.067886         1.947167
 H         3.256274        -1.282940         1.016049
 H         4.749407         2.357691        -0.220155
 H         5.258151         1.140011         1.078492
 H         3.337267         0.955222        -2.041598
 H         1.642506         0.026426        -2.087605
 H         1.971662        -1.688259        -1.393502
