19
Iteration:   798
 C        -0.053799        -0.511920         0.325612
 C         1.411357        -0.198987         0.027391
 C         2.612798        -0.412019         0.978623
 C         3.121624         0.744844         0.227089
 C         4.575598         1.198084         0.231589
 O         4.839410         0.302892        -0.888252
 C         3.323570         0.321765        -1.193747
 C         2.076622        -0.714725        -1.336793
 O         1.874654         1.337042         0.066486
 H        -0.461733        -0.057556         1.257706
 H        -0.633468        -0.132760        -0.545476
 H        -0.137124        -1.676066         0.459674
 H         2.173402        -0.120292         1.943834
 H         3.158093        -1.297523         1.209526
 H         4.603675         2.330585        -0.111823
 H         5.139604         1.083394         1.184641
 H         3.228053         1.384635        -1.685098
 H         1.612071        -0.660542        -2.356219
 H         2.414417        -1.733539        -1.160079
