19
Iteration:   148
 C         0.063363        -0.550282         0.220301
 C         1.493141        -0.180791         0.086571
 C         2.627881        -0.442213         1.070941
 C         3.108904         0.878330         0.203951
 C         4.592457         1.253580         0.108379
 O         4.746441         0.137352        -0.803904
 C         3.311407         0.323910        -1.209217
 C         2.122475        -0.608749        -1.353265
 O         1.741607         1.324253         0.158840
 H        -0.443154         0.138479         0.985418
 H        -0.507749        -0.407480        -0.751183
 H         0.033865        -1.579634         0.559967
 H         2.332595        -0.154099         2.085606
 H         3.210744        -1.388498         1.012097
 H         4.829303         2.260902        -0.236281
 H         5.173746         0.967617         1.030854
 H         3.353469         1.163441        -2.010874
 H         1.472025        -0.225754        -2.207068
 H         2.228616        -1.764148        -1.502536
