19
Iteration:  2903
 O         0.876659         0.896909         0.276230
 C        -0.344668         0.977614         1.020414
 C        -1.840169         0.796539         0.637840
 C        -1.885821         1.598300         1.826926
 C        -0.586545         2.389774         1.531369
 O        -3.014661         2.280240         2.604713
 C        -2.230612         1.680306         3.823445
 C        -1.546302         0.571100         2.883333
 C        -0.189870         0.192347         2.359738
 H         0.878580         1.579958        -0.427029
 H        -2.279569         1.360002        -0.264348
 H        -2.090651        -0.336529         0.810929
 H        -0.674622         3.075031         0.675297
 H         0.117884         2.884106         2.203582
 H        -1.480456         2.457951         4.042545
 H        -2.917477         1.436585         4.577102
 H        -2.298802        -0.209140         2.957003
 H         0.549793         0.523952         3.045584
 H        -0.168787        -0.859779         2.091778
