19
Iteration:  1879
 O         0.851370         0.884753         0.033712
 C        -0.204899         0.991884         1.025643
 C        -1.703226         0.847310         0.498355
 C        -1.947755         1.702436         1.819640
 C        -0.575477         2.410072         1.587812
 O        -3.052189         2.220013         2.753886
 C        -2.336160         1.550159         3.845772
 C        -1.587058         0.706618         2.894662
 C        -0.217342         0.231950         2.487321
 H         0.923571        -0.051813        -0.250951
 H        -1.855065         1.355031        -0.465966
 H        -2.240603        -0.072175         0.500160
 H        -0.688634         3.202850         0.748766
 H         0.120353         2.900312         2.353331
 H        -1.575820         2.234593         4.400060
 H        -3.084901         1.050564         4.614328
 H        -2.246764        -0.200977         2.806062
 H         0.636271         0.673993         3.011030
 H         0.024129        -0.824974         2.570048
