19
Iteration:  2786
 O         0.787303         0.782667         0.114120
 C        -0.257519         1.051007         0.999914
 C        -1.675110         0.769223         0.511114
 C        -1.910535         1.586703         1.853078
 C        -0.640188         2.432572         1.481126
 O        -2.899504         2.266061         2.716999
 C        -2.319566         1.679090         3.861687
 C        -1.676842         0.574737         2.984562
 C        -0.216753         0.279255         2.473790
 H         0.984038         1.642232        -0.406804
 H        -1.953673         1.337778        -0.410151
 H        -1.733533        -0.281549         0.501871
 H        -0.914875         3.063075         0.561963
 H         0.007178         3.066318         2.147564
 H        -1.477467         2.309131         4.312988
 H        -3.138246         1.228682         4.680208
 H        -2.281600        -0.387138         2.913239
 H         0.541339         0.875342         2.994063
 H         0.057414        -0.888567         2.228796
