19
Iteration:  3464
 O         0.870523         0.745608         0.198834
 C        -0.245555         0.997946         1.029154
 C        -1.711665         0.832387         0.476583
 C        -1.951472         1.656220         1.841402
 C        -0.679174         2.456671         1.595503
 O        -2.972773         2.282926         2.724285
 C        -2.319614         1.626640         3.821705
 C        -1.608186         0.607532         2.895709
 C        -0.135094         0.263560         2.397082
 H         0.505450         1.020174        -0.698542
 H        -2.024020         1.270891        -0.533316
 H        -2.165014        -0.103807         0.413985
 H        -0.652994         3.072478         0.744842
 H         0.001727         2.775369         2.395720
 H        -1.627622         2.263039         4.262632
 H        -3.020304         1.374484         4.662203
 H        -2.242082        -0.258788         2.751894
 H         0.551733         0.935110         3.003786
 H         0.060534        -0.877800         2.348708
