19
Iteration:  1302charge 0 multiplicity 1
 O         0.856339         0.701697         0.186636
 C        -0.209797         1.015209         1.007598
 C        -1.778530         0.824442         0.523172
 C        -1.959267         1.633633         1.809319
 C        -0.742795         2.454587         1.563763
 O        -2.952067         2.339695         2.670868
 C        -2.246669         1.652037         3.871358
 C        -1.572172         0.640767         2.953561
 C        -0.165513         0.204976         2.298655
 H         1.668014         1.171007         0.516169
 H        -1.945893         1.374398        -0.414434
 H        -2.349179        -0.121801         0.404409
 H        -1.141032         3.145812         0.906697
 H        -0.286269         2.792264         2.509997
 H        -1.674125         2.290694         4.446038
 H        -2.984184         1.277077         4.440110
 H        -2.224600        -0.197044         2.876489
 H         0.614194         0.544050         2.966169
 H        -0.107266        -0.827002         2.095861
