19
Iteration:  3681charge 0 multiplicity 1
 O         0.904064         0.749517         0.201788
 C        -0.184182         1.017208         1.023033
 C        -1.770165         0.843392         0.525968
 C        -1.886325         1.617730         1.880058
 C        -0.704323         2.406289         1.425116
 O        -2.958815         2.241715         2.698082
 C        -2.352077         1.655221         3.859728
 C        -1.635807         0.649108         2.968835
 C        -0.179675         0.294319         2.359675
 H         0.723386         1.135122        -0.617800
 H        -1.874657         1.629114        -0.319232
 H        -2.260332        -0.132652         0.473370
 H        -0.512899         2.994381         0.494180
 H        -0.096834         2.781805         2.427478
 H        -1.751004         2.297380         4.567985
 H        -3.167353         1.200707         4.582583
 H        -2.358773        -0.204840         2.850098
 H         0.641618         0.668404         3.025708
 H         0.026637        -0.810337         2.412041
