19
Iteration:   881charge 0 multiplicity 1
 O         0.862293         0.806908         0.197760
 C        -0.287735         0.943605         1.020611
 C        -1.770923         0.935062         0.493424
 C        -1.879976         1.707257         1.868285
 C        -0.480935         2.307381         1.569727
 O        -2.975989         2.311350         2.688395
 C        -2.316706         1.627326         3.824774
 C        -1.674922         0.617831         2.899922
 C        -0.247400         0.152868         2.393153
 H         1.086951         1.699597        -0.124893
 H        -1.910579         1.526949        -0.400439
 H        -2.307643         0.006434         0.404662
 H        -0.524921         3.078159         0.706082
 H         0.214469         2.604165         2.282235
 H        -1.719630         2.307235         4.537482
 H        -3.095779         1.133221         4.465841
 H        -2.512298        -0.032092         2.662993
 H         0.721127         0.403901         2.870775
 H        -0.289204        -0.897655         2.381875
