19
Iteration:  1165
 O         0.847848         0.742798         0.317043
 C        -0.287841         1.028105         1.055106
 C        -1.714612         0.860531         0.395284
 C        -1.980458         1.669244         1.823025
 C        -0.699529         2.458061         1.533477
 O        -3.009012         2.283407         2.730759
 C        -2.133680         1.680576         3.838072
 C        -1.634512         0.515897         2.904759
 C        -0.184343         0.197338         2.401291
 H         0.685307         1.185235        -0.511343
 H        -1.741657         1.378924        -0.575532
 H        -2.123792        -0.139593         0.267487
 H        -0.883421         3.049065         0.586081
 H         0.015149         2.878868         2.279844
 H        -1.335943         2.318558         4.037537
 H        -2.608751         1.557739         4.853801
 H        -2.407554        -0.249424         2.687271
 H         0.575125         0.724519         2.971792
 H        -0.039968        -0.823917         2.040417
