19
Iteration:  1906charge 0 multiplicity 1
 O         0.810604         0.908199         0.204812
 C        -0.244037         1.033834         1.058351
 C        -1.789007         0.849467         0.500220
 C        -1.947407         1.660436         1.842139
 C        -0.659064         2.412192         1.490545
 O        -2.866276         2.359990         2.738229
 C        -2.375566         1.474077         3.821234
 C        -1.579466         0.550552         2.876239
 C        -0.143289         0.275421         2.404373
 H         0.985899        -0.033318         0.079027
 H        -2.012333         1.367012        -0.451129
 H        -2.332603        -0.172432         0.476877
 H        -0.721825         3.015386         0.613094
 H        -0.084784         3.018101         2.139267
 H        -1.747252         2.148207         4.400840
 H        -3.095520         0.997098         4.436795
 H        -2.171957        -0.374866         2.789296
 H         0.734001         0.728063         2.930934
 H         0.132039        -0.822006         2.383750
