19
Iteration:   467
 O         0.844773         0.593346         0.246235
 C        -0.159373         1.057822         1.069115
 C        -1.709074         1.043213         0.498664
 C        -1.932531         1.705882         1.791866
 C        -0.514585         2.416410         1.595712
 O        -3.033293         2.296560         2.737049
 C        -2.369236         1.622025         3.791866
 C        -1.664752         0.561394         2.844580
 C        -0.249400         0.198827         2.384986
 H         1.166608         1.213085        -0.440968
 H        -1.693191         1.551948        -0.499414
 H        -2.410349         0.150229         0.328235
 H        -0.395960         3.289212         0.733908
 H         0.157311         2.806883         2.411472
 H        -1.679345         2.148930         4.496654
 H        -3.068796         1.190968         4.519268
 H        -2.329720        -0.297276         2.621878
 H         0.580074         0.465273         3.107880
 H        -0.187183        -0.809161         2.075435
