19
Iteration:  1061
 O         0.818990         0.698945         0.166736
 C        -0.242973         0.994594         1.009170
 C        -1.785394         0.949319         0.445536
 C        -1.964880         1.679351         1.873088
 C        -0.628285         2.368480         1.665292
 O        -2.962966         2.305359         2.685518
 C        -2.307013         1.626193         3.880430
 C        -1.625216         0.607395         2.888294
 C        -0.165846         0.294480         2.299663
 H         1.670644         0.478235         0.518540
 H        -1.820272         1.608134        -0.453216
 H        -2.227504        -0.068996         0.366157
 H        -0.857376         3.186490         0.932048
 H         0.110632         2.666984         2.302681
 H        -1.573868         2.350232         4.364078
 H        -3.072952         1.188170         4.507948
 H        -2.164068        -0.350102         2.810260
 H         0.749778         0.643611         2.783897
 H         0.055118        -0.786647         2.292729
