19
Iteration:  4314
 O         0.854125         0.640229         0.271675
 C        -0.197196         1.058683         1.099877
 C        -1.740422         0.832429         0.503562
 C        -2.018428         1.685686         1.846312
 C        -0.692796         2.516620         1.458983
 O        -2.966246         2.251706         2.757245
 C        -2.278761         1.599918         3.861387
 C        -1.567144         0.659641         2.783865
 C        -0.146740         0.297261         2.373219
 H         0.843875         1.203478        -0.610736
 H        -1.974479         1.233450        -0.541162
 H        -2.115129        -0.186369         0.608488
 H        -0.876082         2.981347         0.629478
 H        -0.089763         3.028417         2.223059
 H        -1.598504         2.246016         4.432072
 H        -3.122988         1.077779         4.408962
 H        -2.174199        -0.227210         2.678775
 H         0.579109         0.542771         3.117559
 H        -0.038219        -0.754037         2.274283
