19
Iteration:  1794
 O         0.845018         0.994990         0.191452
 C        -0.248354         1.020504         1.043927
 C        -1.749169         0.839840         0.559381
 C        -1.964474         1.705824         1.795573
 C        -0.702941         2.423823         1.421980
 O        -2.897109         2.278754         2.702445
 C        -2.194231         1.563446         3.852994
 C        -1.657707         0.559478         2.875526
 C        -0.232259         0.142445         2.508940
 H         1.179589         0.125000         0.009263
 H        -2.049582         1.283746        -0.442401
 H        -2.141458        -0.228449         0.501039
 H        -0.817662         3.213167         0.697175
 H        -0.028207         2.841954         2.130461
 H        -1.405088         2.064125         4.335416
 H        -3.043466         1.362924         4.511748
 H        -2.308046        -0.339014         2.682885
 H         0.512451         0.423380         3.237325
 H        -0.135068        -0.956406         2.138742
