19
Iteration:   721charge 0 multiplicity 1
 O         0.789601         0.736326         0.156973
 C        -0.254195         0.979457         1.096158
 C        -1.714959         1.026095         0.569933
 C        -1.965652         1.745060         1.836276
 C        -0.454712         2.433515         1.566797
 O        -3.076187         2.202647         2.652216
 C        -2.284602         1.612259         3.817368
 C        -1.656928         0.632455         2.879407
 C        -0.200103         0.165491         2.343315
 H         1.606158         0.552471         0.734730
 H        -1.831268         1.700330        -0.346740
 H        -2.264166         0.056812         0.346631
 H        -0.501674         3.052927         0.723026
 H         0.280039         2.818259         2.281346
 H        -1.549684         2.366029         4.281336
 H        -3.055730         1.401111         4.609822
 H        -2.286277        -0.304491         2.781795
 H         0.701287         0.396382         2.996071
 H        -0.210501        -0.974670         2.131299
