19
Iteration:  2955
 O         0.811689         0.661682         0.245760
 C        -0.284433         1.062608         1.058205
 C        -1.713229         0.880496         0.471086
 C        -1.973259         1.671531         1.781481
 C        -0.660407         2.417027         1.587656
 O        -3.027968         2.187306         2.680991
 C        -2.225765         1.658270         3.881924
 C        -1.573407         0.591786         2.875467
 C        -0.142496         0.322363         2.373969
 H         0.880436         1.315360        -0.512381
 H        -1.736990         1.361185        -0.520786
 H        -2.226655        -0.135462         0.364392
 H        -0.906540         3.282284         0.994981
 H        -0.035379         2.721783         2.426931
 H        -1.394288         2.410174         4.115171
 H        -3.007426         1.501544         4.615857
 H        -2.191390        -0.295902         2.964877
 H         0.719985         0.903764         2.876868
 H         0.169060        -0.687378         2.294247
