19
Iteration:  2844charge 0 multiplicity 1
 O         0.819671         0.643909         0.218995
 C        -0.282519         1.069808         1.012625
 C        -1.729226         0.902471         0.560481
 C        -1.918437         1.656390         1.826204
 C        -0.645384         2.528269         1.517386
 O        -2.996867         2.129851         2.668833
 C        -2.217967         1.634263         3.881997
 C        -1.616384         0.622156         2.866562
 C        -0.185972         0.337965         2.415935
 H         0.696153         1.075724        -0.604787
 H        -1.838670         1.405704        -0.431788
 H        -2.140367        -0.191152         0.462050
 H        -0.869832         3.217698         0.699800
 H         0.003303         2.884548         2.313140
 H        -1.538647         2.418228         4.308751
 H        -2.881012         1.236067         4.736807
 H        -2.276457        -0.245147         2.796654
 H         0.605873         0.693090         3.135379
 H         0.162869        -0.677820         2.209476
