19
Iteration:  3586charge 0 multiplicity 1
 O         0.869071         0.801814         0.298407
 C        -0.240442         1.003140         1.039931
 C        -1.841437         0.845836         0.492857
 C        -1.946284         1.655280         1.793696
 C        -0.666565         2.439170         1.504733
 O        -2.971013         2.225900         2.693747
 C        -2.204894         1.715660         3.777756
 C        -1.588973         0.589608         2.922219
 C        -0.190520         0.191095         2.385917
 H         0.952668         1.401427        -0.457660
 H        -2.179558         1.278655        -0.597489
 H        -2.263507        -0.127347         0.660446
 H        -0.730839         3.238556         0.733638
 H        -0.032407         2.658176         2.351251
 H        -1.696781         2.466089         4.379539
 H        -2.862551         1.278787         4.637295
 H        -2.257993        -0.278989         2.851386
 H         0.598740         0.549738         3.139941
 H         0.192629        -0.967007         2.226334
