19
Iteration:  1079charge 0 multiplicity 1
 O         0.769922         0.784746        -0.018801
 C        -0.212170         0.984133         1.010416
 C        -1.697803         0.960747         0.529484
 C        -1.960698         1.597211         1.831320
 C        -0.593371         2.431306         1.612389
 O        -2.957850         2.312403         2.675448
 C        -2.349784         1.656946         3.855095
 C        -1.610791         0.572454         2.918647
 C        -0.160209         0.190581         2.517505
 H         1.303654         0.104505         0.417506
 H        -1.730011         1.714383        -0.291902
 H        -2.191483        -0.000932         0.275117
 H        -0.680295         3.239403         0.759133
 H        -0.242681         2.854426         2.626968
 H        -1.599327         2.350790         4.367907
 H        -3.217705         1.225202         4.496145
 H        -2.362808        -0.291161         2.754015
 H         0.627595         0.700053         3.192312
 H         0.054790        -0.947710         2.390171
