19
Iteration:  4883charge 0 multiplicity 1
 O         0.791117         0.961874         0.126690
 C        -0.294748         0.901322         1.022428
 C        -1.741234         0.849224         0.599429
 C        -1.893922         1.620578         1.862883
 C        -0.588820         2.381379         1.533162
 O        -3.054188         2.158208         2.594637
 C        -2.225289         1.705664         3.803323
 C        -1.539416         0.691832         2.924128
 C        -0.206902         0.239761         2.440862
 H         1.220398         0.138834         0.242367
 H        -1.997393         1.336793        -0.301314
 H        -2.282000        -0.123460         0.530543
 H        -0.810188         3.150022         0.902844
 H        -0.039823         2.632777         2.361538
 H        -1.641697         2.602049         4.214646
 H        -2.852519         1.238147         4.666778
 H        -2.211580        -0.198501         3.058057
 H         0.672605         0.719906         2.916325
 H        -0.029309        -0.868525         2.425166
