19
Iteration:  4135charge 0 multiplicity 1
 O         0.779388         0.708088         0.175564
 C        -0.235863         1.050191         1.051374
 C        -1.729537         0.864672         0.424072
 C        -1.908019         1.637820         1.837427
 C        -0.641979         2.417368         1.509746
 O        -2.970032         2.259945         2.642158
 C        -2.395314         1.666600         3.917349
 C        -1.518618         0.640215         3.013090
 C        -0.064896         0.216763         2.435363
 H         0.768644         1.345959        -0.580927
 H        -1.994967         1.270110        -0.559720
 H        -2.145320        -0.180741         0.429856
 H        -0.869013         3.199075         0.752144
 H        -0.141347         2.924057         2.303261
 H        -1.920496         2.518701         4.379690
 H        -3.320927         1.172623         4.468541
 H        -2.186946        -0.254321         2.921783
 H         0.722131         0.702661         3.049989
 H         0.013486        -0.894264         2.295903
