19
Iteration:  4070
 O         0.885551         0.704951         0.268938
 C        -0.213487         1.074176         1.048034
 C        -1.701602         0.879810         0.490326
 C        -1.993635         1.609899         1.816230
 C        -0.776524         2.385658         1.500981
 O        -3.014275         2.252340         2.683972
 C        -2.198038         1.691639         3.827386
 C        -1.569245         0.614398         2.915914
 C        -0.205544         0.234123         2.428358
 H         0.844774         1.194179        -0.523232
 H        -1.951433         1.558745        -0.359617
 H        -2.055982        -0.152142         0.164349
 H        -0.938048         3.194844         0.720454
 H        -0.297704         2.993847         2.376849
 H        -1.384354         2.344865         4.065146
 H        -2.729977         1.508201         4.821286
 H        -2.205275        -0.296672         2.986463
 H         0.730802         0.478167         2.944978
 H        -0.117997        -0.802875         2.038730
