19
Iteration:  2877
 O         0.881238         0.763915         0.184949
 C        -0.261125         0.975770         1.045670
 C        -1.776283         0.847125         0.452020
 C        -1.980851         1.551168         1.741686
 C        -0.721937         2.410207         1.558756
 O        -3.012927         2.276756         2.758624
 C        -2.237671         1.733368         3.866453
 C        -1.601875         0.639377         2.868543
 C        -0.073785         0.210165         2.437174
 H         0.896634         1.371149        -0.569518
 H        -1.733643         1.494192        -0.418356
 H        -2.168907        -0.209131         0.348009
 H        -0.778045         3.187642         0.793851
 H        -0.203865         2.761589         2.451691
 H        -1.583405         2.523927         4.351608
 H        -2.905248         1.295179         4.702820
 H        -2.373069        -0.108831         2.985142
 H         0.659618         0.679715         3.169890
 H         0.077615        -0.837808         2.246822
