19
Iteration:  4745charge 0 multiplicity 1
 O         0.859044         0.664977         0.203069
 C        -0.277306         1.010683         0.972124
 C        -1.778825         0.943298         0.487992
 C        -1.988024         1.585590         1.856469
 C        -0.673522         2.424926         1.614661
 O        -3.065750         2.096953         2.615945
 C        -2.217618         1.749129         3.863399
 C        -1.515792         0.714768         2.956657
 C        -0.133388         0.285676         2.368686
 H         1.408788         1.430610        -0.201191
 H        -1.963905         1.503993        -0.409328
 H        -2.203970        -0.055974         0.297633
 H        -1.038924         3.283684         0.955400
 H        -0.061153         2.666936         2.621774
 H        -1.637594         2.564739         4.284355
 H        -2.866145         1.447291         4.616623
 H        -2.032195        -0.209482         3.175449
 H         0.781862         0.611289         2.751548
 H        -0.131147        -0.794453         2.163209
