19
Iteration:   251charge 0 multiplicity 1
 O         0.740135         0.665517         0.253393
 C        -0.180815         1.007380         1.152612
 C        -1.708775         1.084801         0.469996
 C        -1.937233         1.752043         1.837309
 C        -0.405092         2.433908         1.713945
 O        -2.952439         2.227710         2.584704
 C        -2.374216         1.648869         3.830037
 C        -1.671595         0.581504         2.756147
 C        -0.278085         0.071120         2.352081
 H         1.059844         1.519520        -0.131381
 H        -1.641106         1.590505        -0.510301
 H        -2.343711         0.174933         0.345043
 H        -0.342319         3.106915         0.900881
 H         0.118871         2.686172         2.728558
 H        -1.643098         2.400886         4.246922
 H        -3.040676         1.187268         4.540263
 H        -2.492971        -0.122364         2.669388
 H         0.447438         0.423754         3.200502
 H        -0.119344        -1.001043         2.056375
