19
Iteration:  1024charge 0 multiplicity 1
 O         0.837564         0.748199         0.183660
 C        -0.167709         0.947453         1.109299
 C        -1.726949         0.981656         0.512806
 C        -1.947874         1.725171         1.831200
 C        -0.605267         2.452509         1.519130
 O        -3.020379         2.236503         2.752809
 C        -2.213585         1.624673         3.851635
 C        -1.657713         0.605343         2.790621
 C        -0.278148         0.108841         2.391324
 H         1.478536         1.420910         0.316470
 H        -1.696736         1.383914        -0.501556
 H        -2.406087         0.102841         0.494982
 H        -0.897078         2.906560         0.551568
 H         0.001723         3.220103         2.109814
 H        -1.311260         2.281036         4.217295
 H        -2.886229         1.510311         4.793581
 H        -2.501050        -0.139374         2.595219
 H         0.590105         0.410069         3.080816
 H        -0.343361        -0.985321         2.090999
