19
Iteration:  2835
 O         0.792031         0.674470         0.261572
 C        -0.214658         1.072882         1.045964
 C        -1.839253         0.858869         0.555898
 C        -1.932956         1.698003         1.826231
 C        -0.606145         2.502981         1.516812
 O        -3.006112         2.146010         2.665456
 C        -2.253808         1.646495         3.866633
 C        -1.517966         0.619252         2.817947
 C        -0.133881         0.280733         2.397858
 H         0.724799         1.025440        -0.601772
 H        -2.199039         1.383978        -0.373449
 H        -2.343474        -0.248513         0.608648
 H        -0.691673         3.344852         0.873712
 H        -0.111222         2.885865         2.403622
 H        -1.627719         2.450086         4.234601
 H        -2.940937         1.208845         4.511716
 H        -2.140302        -0.243083         2.671170
 H         0.587516         0.854210         3.019628
 H         0.092232        -0.727097         2.297036
