19
Iteration:  2002charge 0 multiplicity 1
 O         0.942310         0.990760         0.142265
 C        -0.255980         1.015090         1.025591
 C        -1.839612         0.854145         0.512768
 C        -1.952185         1.553338         1.857132
 C        -0.689992         2.362760         1.534007
 O        -2.933308         2.302030         2.636761
 C        -2.328319         1.643751         3.856139
 C        -1.552602         0.583378         2.989843
 C        -0.140282         0.135864         2.416505
 H         0.834497         0.133168        -0.363046
 H        -2.083998         1.658502        -0.171693
 H        -2.582800         0.045120         0.383066
 H        -0.816885         3.230000         0.843891
 H        -0.070039         2.740833         2.421663
 H        -1.567170         2.433905         4.224642
 H        -3.183834         1.294948         4.560462
 H        -2.258690        -0.309963         2.818468
 H         0.533238         0.485597         3.133592
 H         0.106630        -0.948556         2.181256
