19
Iteration:  1554
 O         0.875609         0.878650         0.108069
 C        -0.193807         1.017372         1.048073
 C        -1.701662         0.799257         0.500052
 C        -1.981435         1.698345         1.847918
 C        -0.671100         2.458806         1.461979
 O        -2.948294         2.337837         2.740361
 C        -2.325749         1.592663         3.874714
 C        -1.639318         0.590369         2.931169
 C        -0.193396         0.183786         2.467435
 H         0.707727         0.087230        -0.376412
 H        -1.747361         1.084260        -0.583626
 H        -2.007208        -0.268294         0.522991
 H        -0.916537         3.000526         0.532749
 H        -0.013903         2.886782         2.300782
 H        -1.616801         2.344237         4.462415
 H        -3.111935         1.314447         4.626684
 H        -2.314088        -0.299595         2.723028
 H         0.658251         0.468850         3.066747
 H        -0.056215        -0.934848         2.377931
