19
Iteration:   956
 O         0.875020         0.733734         0.185861
 C        -0.233886         0.977953         1.065988
 C        -1.735046         1.018473         0.525313
 C        -1.893251         1.739472         1.845394
 C        -0.523887         2.422557         1.557358
 O        -2.997893         2.236802         2.711371
 C        -2.349054         1.607890         3.834339
 C        -1.612512         0.652915         2.833498
 C        -0.242532         0.104632         2.412027
 H         0.652851         1.103827        -0.694359
 H        -1.872899         1.546789        -0.395909
 H        -2.270043         0.097982         0.475695
 H        -0.790948         2.993973         0.788971
 H         0.067136         2.957057         2.360465
 H        -1.648236         2.318692         4.368946
 H        -2.994032         1.159654         4.628168
 H        -2.295036        -0.178853         2.681787
 H         0.584047         0.330091         3.150033
 H        -0.440076        -0.925685         2.199098
