19
Iteration:   899charge 0 multiplicity 1
 O         0.892981         0.667260         0.235887
 C        -0.240882         0.990349         1.048393
 C        -1.894226         1.064116         0.463800
 C        -1.949825         1.659454         1.831488
 C        -0.599713         2.399283         1.570499
 O        -2.862890         2.315648         2.613427
 C        -2.340845         1.583861         3.886740
 C        -1.602924         0.549311         2.856124
 C        -0.212911         0.187798         2.420187
 H         1.008779         1.389919        -0.394751
 H        -1.899372         1.861477        -0.291881
 H        -2.523869         0.181953         0.290030
 H        -0.726573         3.192842         0.873435
 H        -0.044434         2.833223         2.516624
 H        -1.554951         2.183951         4.410835
 H        -3.146063         1.244774         4.526101
 H        -2.199294        -0.365298         2.839073
 H         0.480612         0.631997         3.148808
 H         0.162687        -0.878583         2.365743
