19
Iteration:  2972
 O         0.863787         0.671415         0.230778
 C        -0.226696         1.038084         1.038983
 C        -1.868671         0.932788         0.591239
 C        -1.930620         1.646090         1.883948
 C        -0.639793         2.505587         1.542878
 O        -2.999489         2.162371         2.642698
 C        -2.258817         1.637195         3.743142
 C        -1.575253         0.562428         2.856876
 C        -0.100712         0.301918         2.459562
 H         0.739346         1.107536        -0.682542
 H        -2.126658         1.663938        -0.235730
 H        -2.276036        -0.058064         0.575897
 H        -0.617383         3.166606         0.624989
 H        -0.117459         3.143486         2.301032
 H        -1.623744         2.389140         4.117036
 H        -2.831896         1.173687         4.601207
 H        -2.371802        -0.228823         2.658684
 H         0.570399         0.855084         3.085140
 H        -0.024510        -0.832366         2.385302
