19
Iteration:   873
 O         0.860417         0.818901         0.146274
 C        -0.250587         0.909578         1.062346
 C        -1.692843         0.842276         0.530989
 C        -1.898924         1.757338         1.860856
 C        -0.505939         2.350551         1.598375
 O        -3.005649         2.311760         2.745857
 C        -2.344545         1.672903         3.790308
 C        -1.653731         0.652184         2.898843
 C        -0.300570         0.115927         2.325534
 H         1.081414         1.724299        -0.044235
 H        -1.753384         1.561577        -0.326512
 H        -2.328531        -0.095756         0.493858
 H        -0.342064         3.167403         0.588748
 H         0.145080         2.662124         2.445444
 H        -1.542716         2.158228         4.301251
 H        -3.105782         1.223607         4.423021
 H        -2.404165        -0.188707         2.686094
 H         0.572333         0.307070         2.983769
 H        -0.295651        -0.999180         2.171860
