19
Iteration:  1984
 O         0.839890         0.961309         0.123358
 C        -0.189659         1.062734         1.028833
 C        -1.830794         0.929898         0.535684
 C        -1.943253         1.576181         1.887999
 C        -0.591721         2.404399         1.635615
 O        -2.986134         2.154176         2.603648
 C        -2.206335         1.717210         3.808122
 C        -1.629957         0.521372         2.927046
 C        -0.228160         0.199044         2.452404
 H         0.836269         0.067486        -0.341914
 H        -1.858193         1.476872        -0.446131
 H        -1.930463        -0.205392         0.478812
 H        -0.918946         3.035766         0.855720
 H        -0.056715         2.889785         2.401816
 H        -1.434568         2.383670         4.182552
 H        -2.948824         1.431093         4.478692
 H        -2.389049        -0.228907         3.027607
 H         0.776968         0.466784         2.949984
 H        -0.358717        -0.867315         2.273320
