19
Iteration:  3275
 O         0.919192         0.736024         0.167307
 C        -0.298276         0.953730         0.988937
 C        -1.747859         0.902321         0.535130
 C        -2.018217         1.673433         1.876106
 C        -0.608817         2.383803         1.581439
 O        -3.015933         2.198285         2.662418
 C        -2.239566         1.640177         3.886619
 C        -1.584008         0.670029         2.850875
 C        -0.191011         0.277072         2.423434
 H         0.973678         1.373513        -0.511370
 H        -1.929518         1.374613        -0.390096
 H        -2.005028        -0.140179         0.352053
 H        -0.948876         3.167319         0.837109
 H         0.009280         2.821488         2.355096
 H        -1.652048         2.500947         4.128681
 H        -2.810029         1.276747         4.716085
 H        -2.358237        -0.082173         2.894541
 H         0.598432         0.800682         3.096500
 H        -0.136879        -0.836423         2.338148
