19
Iteration:  3496
 O         0.823492         0.677749         0.184248
 C        -0.191715         0.999154         1.073199
 C        -1.758069         0.932086         0.482333
 C        -1.913737         1.681575         1.862158
 C        -0.675920         2.475343         1.546058
 O        -3.019309         2.171696         2.661454
 C        -2.346063         1.614230         3.831903
 C        -1.544683         0.658826         2.932200
 C        -0.137613         0.273503         2.415336
 H         0.676793         1.149432        -0.606394
 H        -1.908844         1.668718        -0.369071
 H        -2.218032         0.001395         0.537629
 H        -0.637717         3.072477         0.683249
 H         0.086393         2.945288         2.198252
 H        -1.575695         2.300606         4.172499
 H        -3.016199         1.313833         4.718256
 H        -2.241307        -0.156277         2.793605
 H         0.684713         0.534423         3.126023
 H         0.033988        -0.824870         2.301361
