19
Iteration:   736charge 0 multiplicity 1
 O         0.811730         0.783489         0.082446
 C        -0.241882         0.917789         0.995906
 C        -1.822233         1.000984         0.438976
 C        -1.907193         1.703789         1.859319
 C        -0.474699         2.345126         1.620829
 O        -3.007574         2.251744         2.659738
 C        -2.367341         1.633982         3.860598
 C        -1.603538         0.635224         2.867586
 C        -0.218701         0.211138         2.493221
 H         1.662181         0.575213         0.536554
 H        -1.791442         1.625571        -0.415665
 H        -2.407579         0.119048         0.355556
 H        -0.300849         3.200415         0.910918
 H        -0.024594         2.573234         2.712832
 H        -1.717914         2.423110         4.335557
 H        -2.976663         1.043920         4.544103
 H        -2.337804        -0.116565         2.650070
 H         0.588306         0.688139         3.012483
 H        -0.001392        -0.851577         2.636633
