19
Iteration:  4947charge 0 multiplicity 1
 O         0.792653         0.888380         0.249268
 C        -0.280554         1.037318         1.051449
 C        -1.813035         0.783441         0.518543
 C        -1.947775         1.642285         1.754923
 C        -0.534431         2.418798         1.413997
 O        -3.005338         2.145610         2.736971
 C        -2.232342         1.697103         3.841363
 C        -1.602116         0.572035         2.864378
 C        -0.154455         0.321339         2.506798
 H         0.821795         0.083440        -0.332303
 H        -1.875012         1.238380        -0.432492
 H        -2.489978        -0.122989         0.555135
 H        -0.607517         3.285393         0.520014
 H        -0.093531         2.956343         2.278162
 H        -1.387132         2.334265         4.170690
 H        -2.786057         1.238757         4.650147
 H        -2.347272        -0.268421         2.584507
 H         0.525148         0.910332         3.167184
 H         0.354556        -0.644680         2.448332
