19
Iteration:  4650
 O         0.866251         0.747005         0.211350
 C        -0.210620         0.969639         0.992032
 C        -1.795213         0.958414         0.602648
 C        -1.892737         1.685113         1.855472
 C        -0.636298         2.483098         1.493009
 O        -2.997231         2.106558         2.649506
 C        -2.293060         1.619546         3.830597
 C        -1.568027         0.684417         2.938040
 C        -0.166585         0.228115         2.446212
 H         0.680058         0.994176        -0.756279
 H        -2.135568         1.460532        -0.402204
 H        -2.315579         0.045339         0.476651
 H        -0.845731         3.173947         0.660213
 H        -0.192890         2.884391         2.306086
 H        -1.732882         2.380991         4.384699
 H        -3.022349         1.273255         4.517980
 H        -2.293711        -0.114093         2.636293
 H         0.742095         0.764098         2.899246
 H        -0.091224        -0.846994         2.415549
