19
Iteration:  3417
 O         0.874386         0.773816         0.259025
 C        -0.283050         0.928426         0.956220
 C        -1.720197         0.892485         0.473767
 C        -1.962409         1.661818         1.830389
 C        -0.661663         2.396869         1.525270
 O        -3.023407         2.175696         2.732634
 C        -2.252904         1.739010         3.897765
 C        -1.610658         0.656363         2.906064
 C        -0.150892         0.226532         2.372872
 H         1.099973         1.429074        -0.362142
 H        -1.759674         1.290847        -0.534825
 H        -2.203769        -0.134286         0.193698
 H        -0.833177         3.165508         0.759920
 H        -0.104075         2.801802         2.382626
 H        -1.468847         2.458498         4.247470
 H        -2.935895         1.464293         4.713407
 H        -2.289977        -0.208515         2.893322
 H         0.729776         0.512105         2.932992
 H        -0.211590        -0.775292         2.167016
