19
Iteration:  1333
 O         0.720514         0.917062         0.044516
 C        -0.223005         0.896237         1.096526
 C        -1.690803         0.775373         0.526066
 C        -1.888360         1.654971         1.779974
 C        -0.571561         2.358944         1.562193
 O        -2.968548         2.238446         2.685740
 C        -2.239171         1.703405         3.789355
 C        -1.653312         0.638099         2.938151
 C        -0.265868         0.184299         2.491916
 H         1.504673         1.411250         0.267682
 H        -1.664593         1.428240        -0.344629
 H        -2.307026        -0.128979         0.443922
 H        -0.732806         3.183851         0.854408
 H        -0.005747         2.799411         2.432255
 H        -1.458501         2.350746         4.200754
 H        -2.971220         1.537349         4.591404
 H        -2.387675        -0.124807         2.742017
 H         0.416516         0.607394         3.256552
 H        -0.106304        -0.872506         2.455076
