19
Iteration:  3759
 O         0.887050         0.744523         0.166171
 C        -0.204028         1.041225         1.018267
 C        -1.810123         0.827984         0.557993
 C        -1.977541         1.589588         1.819884
 C        -0.652057         2.446797         1.534714
 O        -2.964134         2.214335         2.642683
 C        -2.307497         1.759547         3.865765
 C        -1.595103         0.595376         2.976279
 C        -0.169871         0.196174         2.387059
 H         0.938222         1.575888        -0.350283
 H        -1.783130         1.568237        -0.368624
 H        -2.153625        -0.154763         0.361689
 H        -0.755420         3.264399         0.735203
 H        -0.113755         2.974690         2.432542
 H        -1.712879         2.620554         4.179314
 H        -3.163914         1.450536         4.599938
 H        -2.186141        -0.338101         3.064187
 H         0.700547         0.365376         3.097749
 H        -0.001935        -0.937173         2.188706
