19
Iteration:  4041
 O         0.904300         0.755017         0.284710
 C        -0.228088         0.997100         1.047217
 C        -1.820319         0.822488         0.585146
 C        -1.966501         1.675630         1.802508
 C        -0.634087         2.368170         1.488890
 O        -2.997377         2.203778         2.693220
 C        -2.270618         1.691033         3.841303
 C        -1.546749         0.662326         2.850387
 C        -0.227324         0.261974         2.351141
 H         0.910501         1.520544        -0.368631
 H        -2.058757         1.440600        -0.380099
 H        -2.212404        -0.162450         0.553562
 H        -0.738578         3.112550         0.717258
 H        -0.065566         2.661006         2.442840
 H        -1.524415         2.507834         4.150574
 H        -2.877449         1.200891         4.526258
 H        -2.256719        -0.186815         2.903529
 H         0.498683         0.828578         2.892284
 H         0.078026        -0.794581         2.123250
