19
Iteration:  1671
 O         0.930482         1.007816         0.184470
 C        -0.176272         0.921865         1.034833
 C        -1.890920         0.815043         0.406419
 C        -1.920495         1.593523         1.888420
 C        -0.688022         2.388014         1.448462
 O        -2.951115         2.342090         2.694338
 C        -2.230214         1.647424         3.884928
 C        -1.664884         0.570910         2.971707
 C        -0.180301         0.156703         2.427159
 H         1.143385         0.162499        -0.230325
 H        -2.196272         1.605421        -0.271473
 H        -2.442705        -0.105870         0.343120
 H        -0.926797         3.033627         0.667822
 H        -0.120023         2.873317         2.221338
 H        -1.514279         2.170127         4.405234
 H        -3.047634         1.384168         4.524689
 H        -2.263825        -0.278062         2.812879
 H         0.672085         0.565042         3.082269
 H        -0.016313        -0.899829         2.442645
