19
Iteration:  2860
 O         0.845185         0.654756         0.134649
 C        -0.154685         1.038577         1.066428
 C        -1.613677         0.915441         0.428952
 C        -2.022831         1.632324         1.891964
 C        -0.716035         2.426260         1.490224
 O        -3.060418         2.238869         2.765089
 C        -2.229022         1.673172         3.873447
 C        -1.600736         0.571469         2.945772
 C        -0.195696         0.296197         2.445946
 H         0.801347         1.207372        -0.633836
 H        -1.808477         1.593873        -0.443471
 H        -2.047192        -0.075983         0.091546
 H        -0.959611         3.115904         0.654149
 H        -0.233188         3.170214         2.161675
 H        -1.438669         2.380207         4.019995
 H        -2.908672         1.319426         4.602499
 H        -2.193066        -0.368313         2.833409
 H         0.620645         0.743900         2.964537
 H        -0.059316        -0.814345         2.452583
