19
Iteration:  2805charge 0 multiplicity 1
 O         0.889594         0.816429         0.139356
 C        -0.232605         0.904894         1.005348
 C        -1.845710         0.841127         0.531348
 C        -1.951017         1.646644         1.897824
 C        -0.638725         2.341105         1.438167
 O        -2.973648         2.276239         2.639762
 C        -2.360869         1.652062         3.939759
 C        -1.513153         0.632389         2.928480
 C        -0.102285         0.275431         2.450823
 H         0.810854         1.493829        -0.591542
 H        -1.867596         1.557898        -0.259308
 H        -2.491247        -0.008824         0.478230
 H        -0.882147         3.125274         0.714882
 H        -0.041199         2.750607         2.275802
 H        -1.903050         2.414432         4.606220
 H        -3.137957         1.131954         4.493711
 H        -2.169604        -0.253371         2.922532
 H         0.688349         0.808934         2.967979
 H         0.015978        -0.812298         2.425159
