19
Iteration:  4754charge 0 multiplicity 1
 O         0.824260         0.651131         0.157582
 C        -0.175624         1.103266         1.002260
 C        -1.767012         0.907506         0.445321
 C        -2.011970         1.506782         1.848224
 C        -0.707902         2.381885         1.621703
 O        -3.068622         2.174146         2.604664
 C        -2.212301         1.723171         3.864307
 C        -1.519920         0.683109         3.012602
 C        -0.155973         0.341941         2.389767
 H         1.310215         1.345257        -0.429551
 H        -1.902394         1.668963        -0.221864
 H        -2.139250        -0.152738         0.407692
 H        -0.676765         3.247753         0.987951
 H        -0.173076         2.764155         2.620191
 H        -1.710292         2.530682         4.144360
 H        -2.812586         1.282094         4.694102
 H        -2.071448        -0.226272         3.142599
 H         0.754226         0.539969         2.919970
 H        -0.127717        -0.765428         2.126147
