19
Iteration:  4380charge 0 multiplicity 1
 O         0.826262         0.742102         0.161305
 C        -0.227717         0.993965         1.049065
 C        -1.689294         0.852905         0.504841
 C        -1.943313         1.622275         1.827173
 C        -0.748225         2.509192         1.649352
 O        -3.032847         2.177091         2.615067
 C        -2.239506         1.756786         3.805218
 C        -1.506917         0.647124         2.963243
 C        -0.193288         0.172103         2.399055
 H         0.799954         1.395540        -0.485689
 H        -1.777592         1.471301        -0.374233
 H        -2.090702        -0.152264         0.570207
 H        -0.857515         3.201055         0.982810
 H        -0.011737         2.791194         2.427355
 H        -1.511461         2.595601         4.165762
 H        -3.035415         1.457259         4.629862
 H        -2.110993        -0.231849         3.005025
 H         0.764975         0.162680         2.892202
 H        -0.347321        -0.834950         2.190076
