19
Iteration:  2885charge 0 multiplicity 1
 O         0.871309         0.820025         0.233550
 C        -0.258131         0.972263         1.048596
 C        -1.815638         0.792516         0.488727
 C        -1.991655         1.626992         1.797152
 C        -0.694836         2.352741         1.572309
 O        -2.955402         2.240810         2.686665
 C        -2.205490         1.713762         3.837142
 C        -1.609855         0.669768         2.922787
 C        -0.131009         0.249714         2.378951
 H         0.897415         1.428441        -0.543879
 H        -1.848957         1.199321        -0.504634
 H        -2.310472        -0.090423         0.448380
 H        -0.714735         3.264349         0.918168
 H        -0.142332         2.715116         2.471954
 H        -1.521101         2.477350         4.189508
 H        -2.974658         1.179084         4.504186
 H        -2.358072        -0.191680         2.856117
 H         0.786992         0.643237         2.864219
 H        -0.049317        -0.913271         2.330705
