19
Iteration:   619
 O         0.778732         0.625172         0.128277
 C        -0.225289         1.021179         1.117908
 C        -1.640653         0.916315         0.463347
 C        -1.958692         1.699133         1.839391
 C        -0.508424         2.458531         1.657037
 O        -2.980022         2.323972         2.711000
 C        -2.439328         1.665744         3.862308
 C        -1.642430         0.624889         2.865998
 C        -0.213432         0.175666         2.326547
 H         1.484247         1.225097         0.082302
 H        -1.582449         1.534721        -0.478120
 H        -1.996894        -0.149277         0.254610
 H        -0.256939         3.107942         0.725890
 H        -0.125454         2.815802         2.490090
 H        -1.887966         2.404334         4.462771
 H        -3.289192         1.207056         4.366537
 H        -2.185072        -0.344610         2.799702
 H         0.711395         0.360772         3.019313
 H        -0.180419        -0.866367         2.061236
