19
Iteration:  4337charge 0 multiplicity 1
 O         0.864961         0.833431         0.196921
 C        -0.281153         0.925436         1.050411
 C        -1.817629         0.852578         0.528739
 C        -1.932020         1.704803         1.855901
 C        -0.613218         2.427881         1.489823
 O        -2.961166         2.222276         2.637306
 C        -2.278348         1.634321         3.822568
 C        -1.601325         0.600409         2.933568
 C        -0.154481         0.238040         2.506616
 H         0.674316         1.128558        -0.681536
 H        -1.725070         1.406110        -0.412037
 H        -2.444561        -0.089496         0.360188
 H        -0.848271         2.997081         0.714729
 H        -0.025809         2.893558         2.321784
 H        -1.542074         2.387965         4.113800
 H        -2.943409         1.268068         4.582214
 H        -2.294269        -0.202134         2.756676
 H         0.687541         0.702535         3.005277
 H         0.079737        -0.767374         2.446921
