19
Iteration:   707
 O         0.773120         0.674822         0.196252
 C        -0.179178         1.082826         1.066427
 C        -1.675574         1.000881         0.500450
 C        -1.869502         1.698261         1.901066
 C        -0.616694         2.514202         1.588585
 O        -3.004206         2.193854         2.667597
 C        -2.288741         1.695694         3.834371
 C        -1.604557         0.574108         2.834223
 C        -0.297568         0.105260         2.354410
 H         1.583860         0.552710         0.626475
 H        -1.668948         1.544086        -0.485276
 H        -2.121935        -0.041624         0.436255
 H        -0.871917         3.266609         0.703698
 H        -0.106034         2.972467         2.321258
 H        -1.634479         2.468512         4.147623
 H        -2.866523         1.242964         4.631008
 H        -2.513054        -0.062038         2.659630
 H         0.574166         0.176026         3.107868
 H        -0.360040        -0.855033         1.877332
