19
Iteration:   554
 O         0.859019         0.764990         0.234365
 C        -0.289765         0.943040         1.060138
 C        -1.729550         0.907344         0.465855
 C        -1.922239         1.684507         1.788712
 C        -0.546767         2.389077         1.577910
 O        -2.928385         2.324051         2.700819
 C        -2.271385         1.628204         3.840263
 C        -1.655885         0.658033         2.791847
 C        -0.352591         0.141204         2.422195
 H         1.370947         1.590782         0.523564
 H        -1.858561         1.601142        -0.415569
 H        -2.148933        -0.155302         0.338373
 H        -0.474635         3.039533         0.578343
 H         0.117419         2.739963         2.344031
 H        -1.518237         2.264111         4.397540
 H        -2.936367         1.125699         4.565964
 H        -2.482175        -0.087252         2.677378
 H         0.553458         0.390965         3.090644
 H        -0.358260        -0.931873         2.373510
