19
Iteration:  2476charge 0 multiplicity 1
 O         0.843849         0.820220         0.179440
 C        -0.227583         1.045343         1.057945
 C        -1.845523         0.875851         0.646343
 C        -1.897388         1.652501         1.878124
 C        -0.577020         2.409147         1.646376
 O        -2.958812         2.223804         2.610213
 C        -2.320368         1.674443         3.817823
 C        -1.569128         0.619579         2.820368
 C        -0.198226         0.181594         2.346819
 H         0.579577         0.639219        -0.775995
 H        -2.041520         1.349365        -0.242903
 H        -2.026990        -0.181023         0.572805
 H        -0.664161         3.214335         0.848220
 H        -0.001233         3.040383         2.451848
 H        -1.689221         2.329245         4.396937
 H        -3.022633         1.216181         4.465511
 H        -2.332285        -0.119349         2.839899
 H         0.778805         0.418303         2.933291
 H        -0.176112        -0.889912         2.114061
