19
Iteration:  3746
 O         0.850388         0.779891         0.197674
 C        -0.249991         1.015679         1.010906
 C        -1.711047         0.868948         0.456923
 C        -1.947033         1.617349         1.857573
 C        -0.618837         2.371939         1.507934
 O        -3.070781         2.197729         2.632461
 C        -2.232029         1.725283         3.876221
 C        -1.609176         0.611219         3.008029
 C        -0.185124         0.213882         2.459948
 H         1.180757         1.429801        -0.465865
 H        -2.060916         1.574433        -0.387279
 H        -2.206844        -0.066411         0.266235
 H        -0.748916         3.019625         0.643356
 H        -0.080009         2.866224         2.416582
 H        -1.434535         2.398725         4.138899
 H        -2.816498         1.598628         4.796144
 H        -2.415815        -0.131013         2.823171
 H         0.718200         0.755492         2.912397
 H        -0.034783        -0.967686         2.249589
