19
Iteration:  1227charge 0 multiplicity 1
 O         0.697630         0.751667         0.005733
 C        -0.255181         1.015397         1.084717
 C        -1.703325         0.824139         0.528848
 C        -1.922378         1.526074         1.908537
 C        -0.634944         2.469565         1.596846
 O        -2.948850         2.321007         2.592493
 C        -2.379099         1.718542         3.872479
 C        -1.545331         0.582373         2.962984
 C        -0.112257         0.246459         2.429428
 H         1.608306         0.737019         0.331925
 H        -1.718772         1.595344        -0.237108
 H        -2.074205        -0.149558         0.172283
 H        -0.881641         3.116912         0.858113
 H         0.037003         2.879518         2.391571
 H        -1.903076         2.619278         4.488788
 H        -3.129265         1.181242         4.416569
 H        -2.167898        -0.286869         2.924533
 H         0.737603         0.558330         3.069650
 H         0.073307        -0.784704         2.199733
