19
Iteration:  2144
 O         0.855634         0.971446         0.226721
 C        -0.321235         0.956369         1.013539
 C        -1.734825         0.791459         0.411085
 C        -1.996218         1.596552         1.816345
 C        -0.661582         2.391500         1.579502
 O        -2.890717         2.288251         2.792226
 C        -2.212119         1.629603         3.836941
 C        -1.648103         0.614378         2.855355
 C        -0.203057         0.236642         2.387664
 H         0.938880         0.224518        -0.401954
 H        -1.811714         1.421727        -0.428389
 H        -2.038204        -0.192314         0.296408
 H        -0.837766         3.175498         0.843737
 H        -0.322237         2.740163         2.611666
 H        -1.579471         2.354739         4.272326
 H        -2.865437         1.141230         4.577663
 H        -2.333063        -0.247063         2.777409
 H         0.568718         0.698312         2.922931
 H         0.107486        -0.840364         2.226347
