19
Iteration:  1727charge 0 multiplicity 1
 O         0.753026         0.809607         0.083136
 C        -0.185107         1.054494         1.118043
 C        -1.698149         1.021874         0.564883
 C        -1.971174         1.722326         1.826859
 C        -0.606647         2.478303         1.524525
 O        -3.034188         2.072745         2.680248
 C        -2.270332         1.656622         3.813879
 C        -1.580268         0.609721         2.857226
 C        -0.115147         0.192512         2.479853
 H         0.824092        -0.196356         0.035994
 H        -1.919812         1.389694        -0.465377
 H        -2.258163         0.079899         0.637748
 H        -0.614500         3.204156         0.764370
 H        -0.022510         2.849378         2.352992
 H        -1.671958         2.378736         4.254106
 H        -3.065862         1.317850         4.481460
 H        -2.228437        -0.279229         2.807801
 H         0.704315         0.448909         3.169940
 H        -0.188265        -0.915491         2.321597
