19
Iteration:   638charge 0 multiplicity 1
 O         0.838465         0.744932         0.099459
 C        -0.206687         0.957851         1.101560
 C        -1.754627         0.998537         0.582547
 C        -1.834776         1.728027         1.839059
 C        -0.592413         2.393103         1.550059
 O        -2.975118         2.334162         2.595146
 C        -2.344789         1.575453         3.817154
 C        -1.668711         0.639748         2.878163
 C        -0.249173         0.079699         2.482878
 H         1.567876         1.335837         0.325111
 H        -1.758146         1.513163        -0.346033
 H        -2.270804         0.084249         0.588633
 H        -0.810239         3.158769         0.826189
 H         0.146884         2.789059         2.345515
 H        -1.685819         2.257808         4.313520
 H        -3.073286         1.129465         4.460767
 H        -2.385692        -0.116407         2.622718
 H         0.516717         0.328439         3.205733
 H        -0.309023        -0.995053         2.321966
