19
Iteration:  2157
 O         0.937990         0.913219         0.206586
 C        -0.220609         0.968072         0.971168
 C        -1.791086         0.851018         0.447333
 C        -2.044656         1.683226         1.802263
 C        -0.749568         2.336434         1.587049
 O        -3.032523         2.323893         2.769096
 C        -2.206082         1.545660         3.902528
 C        -1.572765         0.603938         2.832962
 C        -0.151128         0.294103         2.372697
 H         1.036307         0.010215        -0.163733
 H        -2.020441         1.385124        -0.491707
 H        -2.373810        -0.014305         0.432801
 H        -0.555051         3.155026         0.901093
 H        -0.018504         2.570650         2.387422
 H        -1.315640         2.119236         4.298197
 H        -2.863350         1.291669         4.708558
 H        -2.153479        -0.312162         2.762726
 H         0.703068         0.631559         2.901347
 H        -0.159703        -0.787907         2.462686
