19
Iteration:   420
 O         0.958952         0.819937         0.246104
 C        -0.207981         0.938876         1.126823
 C        -1.785438         0.944836         0.466336
 C        -1.955148         1.779666         1.843718
 C        -0.499847         2.291565         1.566615
 O        -2.905847         2.395680         2.708846
 C        -2.387193         1.535958         3.843081
 C        -1.763776         0.598482         2.782477
 C        -0.232336         0.195540         2.409037
 H         0.469474         0.516055        -0.608480
 H        -1.588176         1.488318        -0.467217
 H        -2.400566         0.061413         0.232378
 H        -0.679012         3.124412         0.721367
 H         0.101801         2.632818         2.377125
 H        -1.616715         2.079970         4.386211
 H        -3.137766         1.197062         4.549190
 H        -2.363039        -0.315457         2.642364
 H         0.575784         0.501809         3.069948
 H        -0.284039        -0.925566         2.170765
