19
Iteration:  2356charge 0 multiplicity 1
 O         0.862939         0.843389         0.086108
 C        -0.245470         0.998458         0.987202
 C        -1.669981         0.843768         0.453215
 C        -1.914218         1.694153         1.851746
 C        -0.480739         2.415778         1.584498
 O        -3.099944         2.277356         2.819680
 C        -2.363075         1.629121         3.873613
 C        -1.708844         0.620651         2.912029
 C        -0.139185         0.200723         2.364057
 H         0.651931         0.174340        -0.575105
 H        -1.860577         1.306867        -0.474529
 H        -1.826745        -0.269925         0.437868
 H        -0.532093         3.398863         0.952531
 H         0.018162         2.691332         2.625465
 H        -1.809260         2.319310         4.509311
 H        -2.965473         1.092530         4.588694
 H        -2.510212        -0.133478         2.787293
 H         0.768629         0.709149         2.887677
 H         0.051932        -0.825090         2.254567
