19
Iteration:  1911
 O         0.811950         0.909657         0.227913
 C        -0.278798         1.049281         1.045069
 C        -1.793371         0.855995         0.497351
 C        -1.957178         1.623235         1.864588
 C        -0.618260         2.422071         1.490163
 O        -2.868878         2.350073         2.733309
 C        -2.374559         1.492195         3.781909
 C        -1.566039         0.544714         2.907826
 C        -0.147903         0.256272         2.399715
 H         1.017872        -0.059318         0.100608
 H        -2.008614         1.393763        -0.424493
 H        -2.262498        -0.074720         0.536755
 H        -0.966591         2.976908         0.543191
 H         0.062533         3.084123         2.127800
 H        -1.555731         1.968647         4.393183
 H        -3.243084         1.126029         4.430281
 H        -2.169052        -0.358892         2.770081
 H         0.658757         0.855705         2.879610
 H         0.151425        -0.761153         2.230343
