19
Iteration:  2491charge 0 multiplicity 1
 O         0.837371         0.730588         0.162563
 C        -0.242499         1.005732         1.036616
 C        -1.856735         0.870892         0.494611
 C        -1.931676         1.677777         1.784666
 C        -0.618335         2.419144         1.706536
 O        -2.947376         2.265583         2.646722
 C        -2.248781         1.595688         3.792207
 C        -1.596649         0.601706         2.880110
 C        -0.123395         0.293782         2.431454
 H         0.579622         1.153323        -0.654979
 H        -2.074645         1.375344        -0.518437
 H        -2.491631        -0.011457         0.706847
 H        -0.622429         3.359532         1.178647
 H        -0.130030         2.503376         2.650305
 H        -1.634790         2.365694         4.276975
 H        -3.029505         1.259083         4.565825
 H        -2.208611        -0.318405         2.666402
 H         0.569294         0.776471         3.051112
 H         0.163706        -0.761248         2.413193
