19
Iteration:  4720charge 0 multiplicity 1
 O         0.830509         0.819196         0.218060
 C        -0.211346         0.979836         1.094350
 C        -1.803037         0.896847         0.578451
 C        -1.937707         1.657402         1.828682
 C        -0.612132         2.430132         1.418109
 O        -3.067745         2.146553         2.687608
 C        -2.212245         1.680076         3.834422
 C        -1.598175         0.637032         2.887776
 C        -0.166617         0.194856         2.428906
 H         1.307263         1.615418        -0.184312
 H        -2.027363         1.321282        -0.390703
 H        -2.371666        -0.083039         0.422606
 H        -0.662639         2.908574         0.455739
 H        -0.030472         2.947876         2.278129
 H        -1.522181         2.377690         4.077620
 H        -2.844712         1.464841         4.767884
 H        -2.276124        -0.206947         2.858201
 H         0.660112         0.577049         3.059720
 H        -0.006940        -0.874708         2.122480
