19
Iteration:  2562charge 0 multiplicity 1
 O         0.795602         0.900287         0.151817
 C        -0.260338         0.990759         1.026982
 C        -1.817025         0.830370         0.531798
 C        -1.949539         1.631546         1.851875
 C        -0.640167         2.299758         1.632936
 O        -2.998719         2.264904         2.641981
 C        -2.249270         1.744485         3.836492
 C        -1.536468         0.655896         2.898610
 C        -0.166438         0.209580         2.324811
 H         1.403178         0.172491         0.232606
 H        -1.837004         1.235120        -0.489250
 H        -2.277891        -0.192046         0.557428
 H        -0.716846         3.104924         0.835132
 H        -0.087602         2.691661         2.556210
 H        -1.634145         2.480863         4.501673
 H        -2.943914         1.241368         4.474523
 H        -2.058752        -0.270960         2.942112
 H         0.734188         0.645687         2.932020
 H         0.031761        -0.871013         2.309691
