19
Iteration:   195charge 0 multiplicity 1
 O         0.921860         0.861859         0.397829
 C        -0.254337         0.923838         1.054851
 C        -1.773431         1.058269         0.390013
 C        -1.941831         1.684841         1.823054
 C        -0.548119         2.305394         1.595998
 O        -2.869245         2.415043         2.668476
 C        -2.314222         1.572608         3.780568
 C        -1.690133         0.573180         2.858007
 C        -0.354990         0.075011         2.372474
 H         0.903455         0.486693        -0.458877
 H        -1.790054         1.772294        -0.462248
 H        -2.361959         0.182723         0.016481
 H        -0.394710         3.166711         0.902744
 H        -0.017792         2.542291         2.532639
 H        -1.544108         2.149461         4.387321
 H        -3.056790         1.166490         4.489703
 H        -2.413451        -0.230926         2.705422
 H         0.626503         0.225938         2.974665
 H        -0.325270        -0.979984         2.162004
