19
Iteration:  2606
 O         0.843338         0.792822         0.096138
 C        -0.202210         0.973501         1.119706
 C        -1.716951         0.826897         0.581365
 C        -1.976205         1.672832         1.821482
 C        -0.658246         2.478027         1.568796
 O        -3.027036         2.202884         2.656467
 C        -2.162596         1.687185         3.820739
 C        -1.639666         0.581172         2.887949
 C        -0.198850         0.212846         2.442068
 H         0.570040         1.259967        -0.678119
 H        -1.953798         1.276983        -0.399972
 H        -2.178832        -0.205888         0.635708
 H        -0.798159         3.120925         0.661714
 H        -0.125873         2.874739         2.476050
 H        -1.475114         2.607785         4.045283
 H        -2.751129         1.413444         4.684740
 H        -2.441520        -0.130193         2.878445
 H         0.589578         0.711373         3.143985
 H         0.100701        -0.835641         2.406616
