19
Iteration:  3450charge 0 multiplicity 1
 O         0.867278         0.791539         0.220150
 C        -0.224396         0.998215         1.059849
 C        -1.820163         0.874683         0.559636
 C        -1.981553         1.671170         1.846218
 C        -0.628600         2.392319         1.491931
 O        -2.961866         2.263565         2.644257
 C        -2.254500         1.632013         3.824547
 C        -1.623531         0.552901         2.872894
 C        -0.142027         0.280679         2.455193
 H         0.810664         1.059347        -0.708910
 H        -1.745144         1.479141        -0.328117
 H        -2.238378        -0.149220         0.651824
 H        -0.978109         3.165659         0.816302
 H        -0.197643         2.918196         2.363041
 H        -1.487326         2.305132         4.331041
 H        -2.978115         1.293184         4.602282
 H        -2.299271        -0.291378         2.725780
 H         0.752816         0.441084         3.010593
 H        -0.087616        -0.707282         2.186938
