19
Iteration:  4817charge 0 multiplicity 1
 O         0.961310         0.809014         0.218394
 C        -0.193487         1.020701         0.981934
 C        -1.847549         0.824019         0.512825
 C        -1.969015         1.642224         1.834697
 C        -0.677923         2.412668         1.452169
 O        -2.987610         2.291229         2.754251
 C        -2.374857         1.604007         3.875876
 C        -1.572383         0.637367         2.931599
 C        -0.082134         0.299829         2.377766
 H         0.777133         0.293409        -0.633288
 H        -2.101399         1.225089        -0.515773
 H        -2.398697        -0.177278         0.645038
 H        -0.869483         3.019750         0.640169
 H        -0.144411         2.830651         2.224829
 H        -1.752979         2.352864         4.511767
 H        -3.081944         1.142526         4.683100
 H        -2.219312        -0.269819         2.774687
 H         0.772570         0.733463         2.968219
 H        -0.006168        -0.816055         2.342739
