19
Iteration:  4463
 O         0.800974         0.738698         0.172241
 C        -0.206414         1.080925         1.026614
 C        -1.698319         0.833917         0.599564
 C        -1.895700         1.642169         1.818233
 C        -0.669781         2.452612         1.526686
 O        -2.966189         2.284055         2.706715
 C        -2.378937         1.584319         3.804260
 C        -1.568825         0.636187         2.916555
 C        -0.165970         0.245485         2.475094
 H         0.767199         1.081923        -0.793640
 H        -2.053687         1.265515        -0.406876
 H        -1.763757        -0.242349         0.374969
 H        -0.834193         3.140841         0.518024
 H        -0.038182         3.028266         2.204880
 H        -1.766404         2.216515         4.439283
 H        -3.061172         1.156903         4.495920
 H        -2.287799        -0.210334         2.735779
 H         0.741453         0.566809         3.014522
 H        -0.112732        -0.854161         2.160867
