19
Iteration:  1668charge 0 multiplicity 1
 O         0.904462         1.016193         0.213046
 C        -0.165417         0.911155         1.033632
 C        -1.861479         0.835838         0.428705
 C        -1.943407         1.611261         1.882282
 C        -0.698045         2.364800         1.437499
 O        -2.952707         2.340130         2.675292
 C        -2.197505         1.642043         3.895992
 C        -1.672644         0.568405         2.950651
 C        -0.179775         0.167023         2.408506
 H         1.153912         0.175860        -0.151844
 H        -2.147371         1.494389        -0.323401
 H        -2.483041        -0.013063         0.532175
 H        -0.887946         3.001945         0.488026
 H        -0.119466         2.885746         2.230330
 H        -1.481258         2.169938         4.558089
 H        -3.014309         1.268731         4.523430
 H        -2.302281        -0.306398         2.837764
 H         0.673124         0.514268         3.015454
 H        -0.056716        -0.866744         2.430769
