19
Iteration:  4714charge 0 multiplicity 1
 O         0.846592         0.829047         0.186882
 C        -0.209650         1.026812         1.105771
 C        -1.800697         0.860430         0.575911
 C        -1.975338         1.671433         1.791280
 C        -0.596845         2.382538         1.422049
 O        -3.045703         2.182618         2.671904
 C        -2.189531         1.632705         3.862203
 C        -1.630270         0.633589         2.882626
 C        -0.175778         0.212813         2.467314
 H         1.126992         1.675140        -0.128550
 H        -1.949529         1.284835        -0.450158
 H        -2.269394        -0.103689         0.530802
 H        -0.883643         3.038089         0.536690
 H        -0.024345         3.024359         2.125376
 H        -1.287219         2.392536         4.187103
 H        -2.850178         1.335339         4.619589
 H        -2.313851        -0.243214         2.899436
 H         0.666709         0.444022         3.123976
 H        -0.156345        -0.862599         2.332843
