19
Iteration:  2133
 O         0.812052         1.019410         0.199901
 C        -0.239281         1.069766         1.094086
 C        -1.731205         0.837390         0.478125
 C        -1.939622         1.616717         1.805844
 C        -0.706693         2.382933         1.529822
 O        -2.884188         2.260887         2.685804
 C        -2.186241         1.660557         3.876835
 C        -1.637623         0.489591         2.893915
 C        -0.246667         0.144737         2.382186
 H         0.514075         0.203403        -0.324525
 H        -1.698320         1.330874        -0.445002
 H        -2.047085        -0.127158         0.305276
 H        -0.891261         3.057782         0.690678
 H         0.010876         2.935780         2.250648
 H        -1.538237         2.274684         4.469506
 H        -3.017155         1.325889         4.523740
 H        -2.413324        -0.278770         3.019658
 H         0.435071         0.567033         3.048304
 H        -0.009431        -0.963571         2.363726
