19
Iteration:  2324
 O         0.791433         0.826222         0.208756
 C        -0.267330         0.986358         1.116752
 C        -1.836161         1.045752         0.535392
 C        -1.864690         1.616260         1.831463
 C        -0.649692         2.464300         1.558929
 O        -2.955665         2.231764         2.582763
 C        -2.191320         1.593096         3.782650
 C        -1.576235         0.542787         2.920214
 C        -0.138265         0.122511         2.489178
 H         0.454005         1.022954        -0.658040
 H        -1.938114         1.774660        -0.243230
 H        -2.202430        -0.003866         0.326941
 H        -0.985920         3.063256         0.684278
 H        -0.297915         3.050807         2.425143
 H        -1.592652         2.377631         4.274256
 H        -2.929163         1.094687         4.388261
 H        -2.409835        -0.140183         2.692530
 H         0.774801         0.487948         3.084609
 H        -0.015632        -0.891382         2.351698
