19
Iteration:  1481
 O         0.821643         0.848093         0.104826
 C        -0.305016         1.010219         1.030556
 C        -1.667801         0.870332         0.469202
 C        -1.946191         1.671930         1.863480
 C        -0.584384         2.467780         1.570497
 O        -3.042393         2.129292         2.660815
 C        -2.248566         1.747633         3.854653
 C        -1.569046         0.672199         2.968619
 C        -0.241721         0.161731         2.430980
 H         1.274690         0.040635         0.465265
 H        -1.816245         1.539879        -0.399579
 H        -2.200532        -0.088162         0.316346
 H        -0.771374         3.089965         0.555563
 H         0.084817         2.875866         2.402570
 H        -1.570680         2.511768         4.157000
 H        -2.942545         1.457322         4.640859
 H        -2.185613        -0.294088         2.959367
 H         0.679275         0.187479         3.026333
 H        -0.332434        -0.954503         2.168685
