19
Iteration:  4635charge 0 multiplicity 1
 O         0.823168         0.675604         0.175288
 C        -0.251084         1.036456         1.097033
 C        -1.745008         0.931571         0.523182
 C        -1.929675         1.778209         1.848890
 C        -0.555831         2.514890         1.527939
 O        -3.120601         2.043779         2.676468
 C        -2.317134         1.657263         3.876359
 C        -1.531996         0.637178         2.850536
 C        -0.112554         0.255234         2.412856
 H         0.547919         1.036984        -0.635485
 H        -1.727945         1.519388        -0.306093
 H        -2.258933        -0.061163         0.572154
 H        -0.641981         3.089530         0.610998
 H         0.152837         3.009677         2.238667
 H        -1.600072         2.590668         4.145472
 H        -2.850980         1.289274         4.781444
 H        -2.206537        -0.222742         2.819753
 H         0.618911         0.556730         3.091525
 H        -0.019917        -0.837037         2.217047
