19
Iteration:  3066charge 0 multiplicity 1
 O         0.898687         0.794040         0.257902
 C        -0.317928         0.948900         0.993087
 C        -1.737018         0.891100         0.447281
 C        -2.005177         1.700660         1.812483
 C        -0.628670         2.363446         1.519465
 O        -3.112167         2.135121         2.719578
 C        -2.149109         1.715287         3.897625
 C        -1.627465         0.661378         2.905052
 C        -0.154409         0.213480         2.426481
 H         1.090283         1.559486        -0.323470
 H        -1.745411         1.465773        -0.427170
 H        -2.265684        -0.097743         0.273568
 H        -0.640891         3.102364         0.681237
 H         0.125570         2.853487         2.129667
 H        -1.623377         2.744926         4.041520
 H        -2.661857         1.285361         4.747581
 H        -2.112640        -0.314477         2.957260
 H         0.772691         0.679164         2.854701
 H        -0.154884        -0.864854         2.217407
