19
Iteration:  2158
 O         0.947265         0.912040         0.202528
 C        -0.219123         0.973895         0.974554
 C        -1.801280         0.861060         0.457025
 C        -2.042848         1.692266         1.801504
 C        -0.742968         2.335407         1.583592
 O        -3.042264         2.320921         2.766420
 C        -2.203744         1.541599         3.905491
 C        -1.573624         0.599319         2.833071
 C        -0.151458         0.288936         2.368195
 H         1.013758        -0.041165        -0.132749
 H        -2.004768         1.406196        -0.520366
 H        -2.397655        -0.052854         0.446851
 H        -0.577483         3.153738         0.880536
 H        -0.036861         2.561585         2.355196
 H        -1.285064         2.149024         4.310121
 H        -2.884915         1.280667         4.690407
 H        -2.147683        -0.320036         2.779243
 H         0.732206         0.621813         2.924470
 H        -0.134871        -0.763521         2.484006
