19
Iteration:  3933
 O         0.883788         0.742830         0.265751
 C        -0.234464         1.032265         1.030326
 C        -1.717851         0.841316         0.517226
 C        -2.013160         1.649047         1.847392
 C        -0.641660         2.465754         1.465002
 O        -3.017680         2.219822         2.714120
 C        -2.231099         1.715318         3.804177
 C        -1.670637         0.602502         2.917305
 C        -0.170290         0.185728         2.384537
 H         1.010107         1.354735        -0.563645
 H        -2.147733         1.463608        -0.349674
 H        -2.063401        -0.111576         0.376842
 H        -0.722896         3.126369         0.664185
 H        -0.068517         2.955098         2.214267
 H        -1.469125         2.363665         4.288050
 H        -2.852089         1.377243         4.592859
 H        -2.256531        -0.312136         3.012636
 H         0.636294         0.629348         3.077635
 H         0.161996        -0.936823         2.224338
