19
Iteration:  2445
 O         0.896814         0.926788         0.116718
 C        -0.227201         0.928935         1.024931
 C        -1.679538         0.932671         0.344470
 C        -1.951052         1.644761         1.858440
 C        -0.625806         2.398044         1.503228
 O        -3.025765         2.209292         2.784131
 C        -2.281364         1.716256         3.971833
 C        -1.633604         0.674724         2.924473
 C        -0.262335         0.093152         2.448804
 H         0.998076         0.062419        -0.265191
 H        -1.525988         1.652810        -0.425074
 H        -2.004153        -0.085481         0.023409
 H        -0.854930         2.950876         0.571276
 H        -0.045635         2.993062         2.322715
 H        -1.647496         2.445439         4.446984
 H        -3.002375         1.294653         4.706471
 H        -2.347760        -0.194777         2.878110
 H         0.730244         0.219413         2.990445
 H        -0.367893        -0.949797         2.229391
