19
Iteration:  4386
 O         0.793046         0.731333         0.207668
 C        -0.192727         0.991624         1.048024
 C        -1.660488         0.902979         0.561287
 C        -1.920848         1.655341         1.807388
 C        -0.745218         2.490570         1.606741
 O        -3.028181         2.150189         2.640643
 C        -2.243772         1.770158         3.825718
 C        -1.504941         0.640765         2.923830
 C        -0.215134         0.162639         2.393289
 H         0.920825         1.450169        -0.458861
 H        -2.051305         1.389748        -0.395479
 H        -2.063566        -0.148926         0.545883
 H        -0.954408         3.233222         0.620295
 H        -0.171951         2.837915         2.468428
 H        -1.567182         2.548150         4.037158
 H        -2.922125         1.371848         4.575495
 H        -2.245503        -0.210034         2.907597
 H         0.792509         0.235055         2.874974
 H        -0.238069        -0.965324         2.063372
