19
Iteration:   282
 O         0.893746         0.650766         0.122577
 C        -0.200410         0.996961         1.012099
 C        -1.712556         1.086937         0.433926
 C        -1.984151         1.683132         1.903668
 C        -0.474225         2.309427         1.677044
 O        -2.939660         2.386265         2.645824
 C        -2.422944         1.554950         3.816234
 C        -1.659913         0.608647         2.835875
 C        -0.320412         0.159935         2.437281
 H         1.450199         1.423065         0.272358
 H        -1.627491         1.808862        -0.374497
 H        -2.356132         0.174916         0.373566
 H        -0.548433         3.191291         0.952283
 H         0.187639         2.744526         2.486393
 H        -1.815583         2.174726         4.543898
 H        -3.098625         0.933393         4.374392
 H        -2.326475        -0.234293         2.833173
 H         0.431118         0.516007         3.245401
 H        -0.327210        -0.908057         2.397909
