19
Iteration:  4671charge 0 multiplicity 1
 O         0.873081         0.794759         0.220026
 C        -0.250830         1.001098         1.046430
 C        -1.791605         0.825647         0.486291
 C        -2.032115         1.544301         1.877312
 C        -0.663431         2.380329         1.552483
 O        -2.931058         2.372958         2.681645
 C        -2.339075         1.618523         3.877802
 C        -1.600358         0.584401         2.903110
 C        -0.065431         0.316523         2.376262
 H         0.760892         1.160862        -0.619774
 H        -1.884791         1.191265        -0.547158
 H        -2.128579        -0.153722         0.283717
 H        -0.863847         3.096089         0.739978
 H        -0.030971         2.735661         2.216927
 H        -1.731847         2.427207         4.428453
 H        -3.107212         1.230109         4.488655
 H        -2.124289        -0.403436         2.898810
 H         0.801325         0.723035         2.952793
 H         0.091265        -0.717872         2.104589
