19
Iteration:  2097charge 0 multiplicity 1
 O         0.833229         0.938163         0.097125
 C        -0.214733         1.006122         1.014478
 C        -1.749485         0.892292         0.508230
 C        -1.973497         1.679533         1.860110
 C        -0.569158         2.392305         1.645624
 O        -3.070036         2.128979         2.698531
 C        -2.281092         1.711223         3.879400
 C        -1.544705         0.669461         2.895910
 C        -0.201471         0.148427         2.342577
 H         1.078504        -0.024182        -0.070363
 H        -1.886569         1.347608        -0.476537
 H        -2.335710        -0.038491         0.680389
 H        -0.459339         3.174613         0.854093
 H         0.134977         2.541319         2.479585
 H        -1.705815         2.478024         4.300990
 H        -3.031878         1.229413         4.531218
 H        -2.220328        -0.193842         2.775746
 H         0.636221         0.603091         2.984297
 H        -0.076421        -0.955216         2.252964
