19
Iteration:  3160charge 0 multiplicity 1
 O         0.843506         0.683541         0.180405
 C        -0.224627         1.047627         0.998954
 C        -1.702029         0.880703         0.609828
 C        -1.950352         1.657467         1.877466
 C        -0.607870         2.415634         1.515877
 O        -3.038273         2.210174         2.692347
 C        -2.349189         1.622444         3.851651
 C        -1.580210         0.676825         2.873735
 C        -0.083396         0.277865         2.384829
 H         0.753191         1.141366        -0.637661
 H        -1.969703         1.549635        -0.302744
 H        -2.282166        -0.058641         0.456547
 H        -0.952534         3.166336         0.812114
 H         0.042332         2.938735         2.262814
 H        -1.877737         2.384684         4.444702
 H        -3.072235         1.060604         4.482938
 H        -2.213357        -0.211171         2.777879
 H         0.544586         0.735614         3.051235
 H         0.059391        -0.735724         2.145808
