19
Iteration:  4286charge 0 multiplicity 1
 O         0.890917         0.634049         0.236908
 C        -0.217970         1.014326         0.985497
 C        -1.769386         0.913110         0.453205
 C        -1.976304         1.592069         1.851239
 C        -0.657143         2.445404         1.468364
 O        -3.021597         2.271943         2.677795
 C        -2.249353         1.580116         3.941118
 C        -1.591704         0.637370         2.908742
 C        -0.192520         0.361368         2.409358
 H         1.067336         1.322033        -0.496893
 H        -2.081161         1.626883        -0.258173
 H        -2.170467        -0.163079         0.379528
 H        -0.794472         3.279547         0.579682
 H        -0.050333         2.845398         2.352404
 H        -1.569986         2.308851         4.465509
 H        -3.067107         1.101810         4.602565
 H        -2.186960        -0.286646         2.769893
 H         0.587921         0.869653         3.066818
 H         0.147073        -0.713182         2.496212
