19
Iteration:  4201
 O         0.886413         0.781652         0.299241
 C        -0.241613         0.957745         1.028061
 C        -1.784960         0.924565         0.508925
 C        -1.970472         1.610518         1.859341
 C        -0.732140         2.368588         1.511328
 O        -3.004766         2.233541         2.627957
 C        -2.172003         1.718029         3.870079
 C        -1.566042         0.640638         2.929845
 C        -0.184841         0.229871         2.371298
 H         0.898851         1.253699        -0.550003
 H        -1.806106         1.380450        -0.529972
 H        -2.361865        -0.018167         0.376875
 H        -0.916943         2.986147         0.635830
 H        -0.125849         2.858399         2.191369
 H        -1.493082         2.544295         4.165816
 H        -2.870670         1.028986         4.521643
 H        -2.295193        -0.220103         2.947329
 H         0.645069         0.670024         2.999202
 H        -0.015557        -0.908008         2.270029
