19
Iteration:  4755
 O         0.822127         0.648673         0.151635
 C        -0.172176         1.114952         1.010954
 C        -1.762034         0.899770         0.449861
 C        -2.013037         1.504735         1.843170
 C        -0.710364         2.377496         1.620647
 O        -3.067508         2.181925         2.607435
 C        -2.218775         1.722956         3.867119
 C        -1.517902         0.669255         3.015946
 C        -0.152886         0.344334         2.388682
 H         1.276490         1.358105        -0.442780
 H        -1.912336         1.667084        -0.222513
 H        -2.135790        -0.137677         0.370909
 H        -0.651080         3.271558         0.961192
 H        -0.165030         2.787420         2.632112
 H        -1.701116         2.553035         4.121538
 H        -2.789260         1.275140         4.653760
 H        -2.093625        -0.227799         3.122306
 H         0.724247         0.527553         2.940136
 H        -0.127451        -0.755686         2.160061
