19
Iteration:    55
 O         0.932146         0.763935         0.359480
 C        -0.209563         1.035865         1.031851
 C        -1.695622         1.092143         0.417479
 C        -1.938280         1.679232         1.911850
 C        -0.448186         2.312737         1.743465
 O        -2.906042         2.427587         2.619826
 C        -2.294645         1.558453         3.816101
 C        -1.780048         0.536719         2.792401
 C        -0.433646         0.104074         2.240207
 H         0.841907         0.185604        -0.386185
 H        -1.910174         1.805361        -0.363306
 H        -2.133875         0.110158         0.221487
 H        -0.555793         3.140402         1.001011
 H         0.134464         2.612726         2.632139
 H        -1.675248         2.180858         4.452521
 H        -3.067020         1.102804         4.426840
 H        -2.585822        -0.182753         2.822575
 H         0.440839         0.323199         2.895790
 H        -0.361049        -0.943766         1.993879
