19
Iteration:  4993
 O         0.779569         0.808544         0.094045
 C        -0.240458         1.094983         1.036717
 C        -1.693657         0.771273         0.514980
 C        -1.939231         1.645618         1.900550
 C        -0.692416         2.455496         1.555081
 O        -2.991372         2.185878         2.685142
 C        -2.385548         1.762787         3.836427
 C        -1.521692         0.627599         2.991639
 C        -0.102089         0.244772         2.297764
 H         1.080460        -0.147995         0.367252
 H        -1.978660         1.292807        -0.349129
 H        -1.870286        -0.313155         0.427280
 H        -0.729901         3.352216         0.926763
 H         0.013548         2.736744         2.267249
 H        -1.873938         2.599024         4.362905
 H        -3.103038         1.095001         4.467383
 H        -2.094318        -0.358952         3.103701
 H         0.659019         0.685268         2.931864
 H         0.121826        -0.853640         2.225482
