19
Iteration:  1476charge 0 multiplicity 1
 O         0.792883         0.839731         0.113530
 C        -0.286561         0.998801         0.996046
 C        -1.641967         0.859657         0.476904
 C        -1.925965         1.633746         1.853894
 C        -0.590588         2.475546         1.576402
 O        -3.060275         2.194026         2.659350
 C        -2.255560         1.735691         3.883253
 C        -1.621370         0.656648         2.962958
 C        -0.183534         0.122672         2.413471
 H         1.252224         0.088766         0.441737
 H        -1.807468         1.604657        -0.301397
 H        -2.109231        -0.104018         0.323466
 H        -0.808924         3.066104         0.732834
 H        -0.007327         3.027714         2.379381
 H        -1.715194         2.753196         4.151316
 H        -2.955104         1.400606         4.674570
 H        -2.137535        -0.268478         3.003967
 H         0.743711         0.222692         3.004070
 H        -0.176770        -0.901116         2.066150
