19
Iteration:   705
 O         0.777939         0.668775         0.191584
 C        -0.173445         1.069742         1.068059
 C        -1.674991         1.001523         0.488505
 C        -1.852373         1.671047         1.888544
 C        -0.655226         2.542820         1.592397
 O        -2.988218         2.196840         2.669984
 C        -2.286695         1.693574         3.835620
 C        -1.619160         0.592051         2.835576
 C        -0.306858         0.093247         2.356109
 H         1.646256         0.555780         0.614349
 H        -1.696319         1.485893        -0.465085
 H        -2.052325        -0.011757         0.426571
 H        -0.870374         3.316642         0.709957
 H        -0.109981         3.038526         2.467736
 H        -1.604669         2.421859         4.187872
 H        -2.855892         1.270019         4.631662
 H        -2.488648        -0.044252         2.721650
 H         0.544833         0.198030         3.053078
 H        -0.387929        -0.831351         1.889734
