19
Iteration:   594
 O         0.824289         0.577324         0.162719
 C        -0.231140         1.006059         1.000619
 C        -1.731984         1.029307         0.460302
 C        -1.914763         1.671824         1.890891
 C        -0.548593         2.421953         1.680827
 O        -2.966433         2.283833         2.620711
 C        -2.308675         1.605823         3.816687
 C        -1.667747         0.629359         2.830048
 C        -0.242378         0.235719         2.467432
 H         1.583423         1.151894         0.128978
 H        -1.934226         1.777855        -0.269287
 H        -2.266906         0.146957         0.232181
 H        -0.756163         3.216902         1.006250
 H        -0.044333         2.877745         2.551087
 H        -1.677707         2.325417         4.283678
 H        -3.116265         1.240723         4.402899
 H        -2.240787        -0.260203         2.675393
 H         0.557879         0.624262         3.080237
 H        -0.149556        -0.869259         2.409352
