19
Iteration:  1714
 O         0.734912         0.833949         0.124303
 C        -0.268439         1.045748         1.057425
 C        -1.740646         0.849877         0.535526
 C        -1.919211         1.690971         1.835372
 C        -0.577280         2.521592         1.638105
 O        -3.078430         2.194336         2.647355
 C        -2.289983         1.611021         3.811483
 C        -1.525763         0.635210         2.876572
 C        -0.120692         0.165937         2.456252
 H         0.754321        -0.097474        -0.004790
 H        -1.557094         1.485752        -0.286002
 H        -2.030263        -0.120752         0.295719
 H        -0.641480         3.145042         0.785963
 H        -0.085073         2.954997         2.508028
 H        -1.618564         2.394229         3.995407
 H        -2.679616         1.273648         4.770555
 H        -2.227383        -0.120434         2.627452
 H         0.815410         0.457799         3.003836
 H        -0.000528        -0.843825         2.229667
