19
Iteration:  4657
 O         0.901576         0.760803         0.211620
 C        -0.259027         1.017716         0.988307
 C        -1.806628         0.884427         0.549028
 C        -1.916125         1.674532         1.851441
 C        -0.664866         2.429157         1.504779
 O        -2.981633         2.215828         2.637459
 C        -2.298456         1.606127         3.814842
 C        -1.515541         0.627665         2.957735
 C        -0.177372         0.253975         2.434114
 H         0.670135         1.035448        -0.745200
 H        -2.037023         1.598754        -0.173866
 H        -2.370631        -0.076488         0.514336
 H        -0.881350         3.148301         0.697755
 H        -0.121820         2.888770         2.409456
 H        -1.719876         2.372093         4.522668
 H        -3.026680         1.093702         4.469465
 H        -2.180663        -0.244656         2.906941
 H         0.603796         0.700328         2.969533
 H        -0.052620        -0.848498         2.442413
