19
Iteration:  1630charge 0 multiplicity 1
 O         0.848897         0.822713         0.151440
 C        -0.236556         1.048555         1.013042
 C        -1.706164         0.857479         0.461821
 C        -1.961132         1.652242         1.786456
 C        -0.683337         2.462813         1.579373
 O        -3.046381         2.229827         2.722080
 C        -2.147951         1.669104         3.908561
 C        -1.641298         0.583064         2.869213
 C        -0.193262         0.243816         2.390901
 H         1.153889        -0.136208         0.257665
 H        -2.020103         1.148516        -0.614673
 H        -2.258860        -0.125684         0.682133
 H        -0.710072         3.236003         0.827104
 H        -0.193684         2.894411         2.469530
 H        -1.334535         2.445113         4.276868
 H        -2.825496         1.296169         4.704994
 H        -2.399856        -0.245402         2.933568
 H         0.672398         0.565451         3.003636
 H        -0.150482        -0.895266         2.167614
