19
Iteration:  4925charge 0 multiplicity 1
 O         0.919773         0.883347         0.173545
 C        -0.254594         1.021341         1.002059
 C        -1.699992         0.761934         0.560748
 C        -2.009869         1.641753         1.866795
 C        -0.801678         2.362767         1.522900
 O        -2.988505         2.318894         2.678271
 C        -2.205962         1.633813         3.855500
 C        -1.536792         0.639108         2.904752
 C        -0.186627         0.263671         2.413653
 H         0.893119         0.006313        -0.231350
 H        -1.935573         1.215548        -0.386423
 H        -2.089457        -0.282905         0.518232
 H        -0.955045         3.028424         0.517738
 H        -0.240110         3.017124         2.234863
 H        -1.595136         2.414132         4.369342
 H        -2.982844         1.180627         4.482123
 H        -2.300882        -0.195296         2.769719
 H         0.677654         0.537039         3.058806
 H        -0.083074        -0.818083         2.325253
