19
Iteration:  2236charge 0 multiplicity 1
 O         0.801665         0.886555        -0.020581
 C        -0.264242         0.993011         0.968804
 C        -1.766796         0.880584         0.471180
 C        -1.996386         1.663559         1.856875
 C        -0.593511         2.391827         1.645599
 O        -2.967333         2.245385         2.668041
 C        -2.287254         1.604556         3.884910
 C        -1.641948         0.567216         2.940261
 C        -0.158060         0.249808         2.525794
 H         1.600059         0.535247         0.370946
 H        -1.748140         1.396611        -0.522159
 H        -2.136725        -0.185564         0.504090
 H        -0.672837         3.263602         0.971658
 H        -0.026418         2.539177         2.528401
 H        -1.515801         2.397754         4.204708
 H        -2.927581         1.183688         4.647434
 H        -2.360184        -0.233775         2.707950
 H         0.702870         0.742929         3.097180
 H         0.163264        -0.732747         2.401742
