19
Iteration:  2189charge 0 multiplicity 1
 O         0.758062         0.843010         0.175543
 C        -0.233498         1.066591         1.049635
 C        -1.777668         0.979893         0.514523
 C        -1.861402         1.677895         1.860642
 C        -0.630439         2.518723         1.467811
 O        -2.954318         2.079857         2.671445
 C        -2.293430         1.578746         3.889982
 C        -1.563972         0.579334         2.913802
 C        -0.197104         0.245204         2.381843
 H         1.130665         0.014777         0.510014
 H        -1.996396         1.726996        -0.231929
 H        -2.283597         0.110682         0.472718
 H        -0.833417         3.070916         0.538172
 H         0.150153         2.920913         2.231115
 H        -1.560431         2.291224         4.212830
 H        -3.108501         1.371996         4.557144
 H        -2.151975        -0.321857         2.724796
 H         0.650532         0.403786         2.973395
 H        -0.228564        -0.888895         2.320675
