19
Iteration:  4872
 O         0.796002         0.883418         0.116583
 C        -0.209821         0.932882         1.054469
 C        -1.820738         0.842615         0.596624
 C        -1.974520         1.713368         1.801034
 C        -0.627178         2.437072         1.607283
 O        -3.097070         2.133147         2.640820
 C        -2.171375         1.692312         3.776892
 C        -1.584416         0.655155         2.867097
 C        -0.100994         0.221309         2.465030
 H         1.320562         0.105479        -0.067243
 H        -1.756978         1.425201        -0.291188
 H        -2.358496        -0.132205         0.699744
 H        -0.587795         3.127521         0.857530
 H        -0.018492         2.807312         2.337984
 H        -1.494955         2.606898         3.984795
 H        -2.829148         1.300277         4.672243
 H        -2.358414        -0.154023         2.666039
 H         0.617272         0.796711         3.094330
 H         0.082716        -0.862580         2.701984
