19
Iteration:  4411
 O         0.899204         0.729716         0.255368
 C        -0.202220         1.002572         1.048230
 C        -1.841638         0.873205         0.513000
 C        -2.014859         1.658344         1.798388
 C        -0.589209         2.468198         1.454023
 O        -3.070694         2.197477         2.717031
 C        -2.194827         1.636701         3.880410
 C        -1.595979         0.597822         2.886303
 C        -0.206520         0.298349         2.427465
 H         1.061694         1.506554        -0.391903
 H        -1.870965         1.376576        -0.468044
 H        -2.306846        -0.028112         0.393648
 H        -0.772967         3.052469         0.560913
 H         0.249555         2.817245         2.080042
 H        -1.408973         2.376380         4.160975
 H        -2.946744         1.269530         4.708878
 H        -2.214116        -0.283214         2.873286
 H         0.658712         0.626984         3.014369
 H        -0.028480        -0.757526         2.225206
