19
Iteration:   692
 O         0.847822         0.657539         0.131880
 C        -0.207011         0.998973         1.083342
 C        -1.620268         0.934675         0.455138
 C        -1.982667         1.696117         1.747217
 C        -0.731847         2.580917         1.673299
 O        -2.935865         2.259437         2.675111
 C        -2.214001         1.644792         3.851930
 C        -1.680399         0.633095         2.917837
 C        -0.290811         0.103583         2.339240
 H         1.702016         0.731232         0.647236
 H        -1.825190         1.635158        -0.310371
 H        -2.029215        -0.020746         0.301725
 H        -0.800663         3.300187         0.844411
 H        -0.330762         3.120017         2.748932
 H        -1.491895         2.329847         4.330438
 H        -3.034853         1.382281         4.512231
 H        -2.321403        -0.209034         2.831240
 H         0.570321         0.149205         2.941104
 H        -0.367930        -0.977824         2.218845
