19
Iteration:  2662charge 0 multiplicity 1
 O         0.802948         0.737703         0.009495
 C        -0.199556         0.966236         1.048343
 C        -1.787073         0.874609         0.554308
 C        -1.911475         1.663377         1.891265
 C        -0.657506         2.412661         1.377654
 O        -2.950257         2.219404         2.705343
 C        -2.351581         1.611794         3.865178
 C        -1.638951         0.560255         2.924361
 C        -0.121864         0.371503         2.559845
 H         1.721800         1.040108         0.321109
 H        -1.989778         1.449469        -0.308674
 H        -2.301584        -0.135788         0.455943
 H        -0.996376         3.212377         0.723524
 H        -0.045553         2.973018         2.156386
 H        -1.669089         2.449344         4.336134
 H        -3.061210         1.456143         4.700602
 H        -2.203062        -0.305220         2.650496
 H         0.705957         0.941339         3.155757
 H         0.147056        -0.707951         2.514699
