19
Iteration:   767
 O         0.679483         0.748898         0.082025
 C        -0.183861         1.036108         1.125311
 C        -1.635234         0.913043         0.521313
 C        -1.887880         1.630483         1.882608
 C        -0.563781         2.439861         1.589076
 O        -2.892432         2.444119         2.638375
 C        -2.404595         1.555240         3.798670
 C        -1.671175         0.478414         2.924079
 C        -0.235849         0.209352         2.388005
 H         1.614063         0.793132         0.324039
 H        -1.687953         1.514551        -0.403417
 H        -2.052292        -0.079516         0.283631
 H        -0.631220         3.084593         0.834909
 H        -0.260610         3.033737         2.565912
 H        -1.732361         2.304620         4.429640
 H        -3.091461         1.094583         4.566617
 H        -2.304110        -0.350590         2.559642
 H         0.581239         0.536459         3.040797
 H        -0.105588        -0.944815         2.319323
