19
Iteration:  3090charge 0 multiplicity 1
 O         0.912343         0.735592         0.230389
 C        -0.208997         1.090057         1.011154
 C        -1.797812         0.881175         0.510162
 C        -1.951168         1.570881         1.818678
 C        -0.720283         2.445934         1.561212
 O        -3.020349         2.184376         2.721882
 C        -2.204378         1.751238         3.829164
 C        -1.589301         0.625617         2.886565
 C        -0.173906         0.184996         2.365453
 H         1.073189         1.324688        -0.479531
 H        -1.943579         1.354765        -0.475532
 H        -2.172889        -0.155285         0.514905
 H        -0.952096         3.299514         0.935701
 H        -0.131096         2.834650         2.357544
 H        -1.718892         2.713544         4.143898
 H        -2.797718         1.264724         4.639159
 H        -2.189372        -0.271773         2.901464
 H         0.530466         0.451351         3.081191
 H        -0.277793        -0.919884         2.161106
