19
Iteration:  1275
 O         0.794168         0.696074         0.168308
 C        -0.230806         1.002407         1.045118
 C        -1.757317         0.996329         0.462446
 C        -1.958156         1.699493         1.809617
 C        -0.567503         2.431191         1.406291
 O        -3.072609         2.173203         2.708473
 C        -2.228917         1.613771         3.920184
 C        -1.605132         0.640957         2.949013
 C        -0.161729         0.255420         2.427041
 H         1.611667         0.844966         0.689350
 H        -1.877162         1.504983        -0.521944
 H        -2.291933         0.022316         0.420426
 H        -0.915565         3.047843         0.457533
 H         0.065305         2.878060         2.180513
 H        -1.492547         2.418488         4.327042
 H        -2.997493         1.217231         4.766513
 H        -2.331302        -0.222930         2.822149
 H         0.614342         0.786222         3.045052
 H         0.116293        -0.864756         2.346809
