19
Iteration:   797charge 0 multiplicity 1
 O         0.887694         0.697986         0.144687
 C        -0.203024         0.950382         1.059554
 C        -1.808301         1.011073         0.510546
 C        -1.940329         1.738334         1.803536
 C        -0.530857         2.439255         1.549779
 O        -2.987506         2.235271         2.723029
 C        -2.293945         1.591234         3.861795
 C        -1.626706         0.684531         2.832193
 C        -0.287375         0.145812         2.418507
 H         1.610847         1.203249         0.517591
 H        -1.796123         1.546876        -0.509009
 H        -2.432411         0.052429         0.418566
 H        -0.524242         3.230199         0.748541
 H        -0.105092         2.764750         2.458007
 H        -1.732599         2.393599         4.315856
 H        -2.878583         1.009145         4.584171
 H        -2.343196        -0.148070         2.534169
 H         0.583987         0.455440         3.028971
 H        -0.559874        -0.950047         2.387430
