19
Iteration:    40
 O         0.945389         0.801622         0.310155
 C        -0.308131         0.985075         1.036364
 C        -1.693477         1.152722         0.456493
 C        -1.852504         1.748157         1.816755
 C        -0.482942         2.353379         1.746119
 O        -2.906707         2.276251         2.689495
 C        -2.345846         1.660740         3.802774
 C        -1.787270         0.528953         2.783513
 C        -0.398114         0.020509         2.295989
 H         0.955654        -0.202798         0.076015
 H        -1.650716         1.831949        -0.434084
 H        -2.345500         0.312001         0.131075
 H        -0.422226         3.353607         1.083994
 H         0.197080         2.485427         2.588881
 H        -1.399598         2.210501         4.077806
 H        -3.160102         1.469047         4.551797
 H        -2.571731        -0.154137         2.409278
 H         0.465776         0.333476         3.006854
 H        -0.326224        -1.053281         2.065067
