19
Iteration:  4446
 O         0.848009         0.730694         0.250578
 C        -0.239440         1.012206         1.084344
 C        -1.766391         0.815556         0.469671
 C        -2.007735         1.626491         1.849534
 C        -0.697291         2.458415         1.471864
 O        -2.885888         2.340853         2.666904
 C        -2.299393         1.556129         3.844428
 C        -1.599799         0.556653         2.883239
 C        -0.108842         0.328940         2.409419
 H         0.666030         1.318266        -0.581889
 H        -1.766111         1.412670        -0.385980
 H        -2.377657        -0.081540         0.548664
 H        -0.908879         3.128924         0.769400
 H        -0.160199         2.977194         2.321373
 H        -1.728196         2.205616         4.587715
 H        -3.172085         1.144267         4.516354
 H        -2.096454        -0.386955         2.819080
 H         0.640685         0.792905         3.076525
 H         0.080367        -0.691404         2.302084
