19
Iteration:   382
 O         0.820820         0.797934         0.190005
 C        -0.177830         1.046505         1.131525
 C        -1.770446         1.054694         0.456832
 C        -1.913746         1.660550         1.793969
 C        -0.559173         2.374872         1.730109
 O        -2.920554         2.255845         2.585176
 C        -2.333900         1.676949         3.810461
 C        -1.627377         0.605602         2.875321
 C        -0.307218         0.080865         2.392408
 H         0.789613        -0.139334         0.051663
 H        -1.534882         1.673830        -0.426021
 H        -2.255187         0.129525         0.098126
 H        -0.484505         3.249345         1.131295
 H         0.050325         2.805635         2.628084
 H        -1.524119         2.333106         4.272073
 H        -3.129848         1.504779         4.587539
 H        -2.404477        -0.160299         2.683484
 H         0.672058        -0.029291         2.956414
 H        -0.367603        -1.000854         2.126884
