19
Iteration:  3046charge 0 multiplicity 1
 O         0.827953         0.791415         0.220738
 C        -0.202461         1.013422         1.107499
 C        -1.831770         0.878324         0.548892
 C        -1.953313         1.600183         1.818829
 C        -0.659717         2.421486         1.516812
 O        -2.955860         2.189756         2.653357
 C        -2.235034         1.685335         3.783748
 C        -1.574792         0.591403         2.897524
 C        -0.173065         0.225846         2.448946
 H         0.818842         1.524596        -0.362139
 H        -2.013856         1.586536        -0.346266
 H        -2.295217        -0.148596         0.366143
 H        -0.751040         3.172562         0.726618
 H        -0.233343         3.065487         2.269243
 H        -1.343881         2.300150         4.120451
 H        -2.982033         1.402936         4.538860
 H        -2.278499        -0.263073         2.777953
 H         0.550295         0.733506         3.023556
 H         0.077871        -0.853754         2.239783
