19
Iteration:  4209charge 0 multiplicity 1
 O         0.922262         0.775381         0.226603
 C        -0.277398         0.993945         1.035999
 C        -1.748036         0.866746         0.474006
 C        -1.988232         1.583349         1.865341
 C        -0.744356         2.401139         1.550974
 O        -3.015075         2.269365         2.640193
 C        -2.230727         1.735441         3.894901
 C        -1.601318         0.648484         2.928094
 C        -0.131718         0.141487         2.373559
 H         0.940405         1.277488        -0.646798
 H        -1.835894         1.507418        -0.349376
 H        -2.003321        -0.233855         0.236951
 H        -0.892021         3.103431         0.653689
 H        -0.122329         2.964155         2.245860
 H        -1.591550         2.589422         4.329926
 H        -2.878190         1.487213         4.850252
 H        -2.196898        -0.251046         2.962806
 H         0.806580         0.551316         2.887942
 H        -0.142836        -0.943241         2.291354
