19
Iteration:  3716
 O         0.842147         0.727707         0.265659
 C        -0.223920         1.049532         1.117894
 C        -1.827175         0.815497         0.499107
 C        -1.980737         1.676012         1.760629
 C        -0.693533         2.422912         1.540353
 O        -3.004107         2.222319         2.679692
 C        -2.173802         1.663234         3.805065
 C        -1.597724         0.644770         2.864907
 C        -0.113593         0.230166         2.425709
 H         0.994363         1.302261        -0.455205
 H        -1.971119         1.347248        -0.530464
 H        -2.391061        -0.106057         0.408584
 H        -0.489477         3.187798         0.716501
 H        -0.364455         2.890826         2.548557
 H        -1.351646         2.376685         4.123874
 H        -2.910632         1.248281         4.641638
 H        -2.307881        -0.195613         2.718534
 H         0.663777         0.712693         3.046606
 H        -0.016597        -0.775629         2.298415
