19
Iteration:   161
 O         0.832432         0.783197         0.182639
 C        -0.094820         1.043650         1.149663
 C        -1.709038         1.064393         0.420286
 C        -1.914618         1.708410         1.779871
 C        -0.421134         2.369726         1.678275
 O        -2.974171         2.328807         2.733319
 C        -2.356015         1.585833         3.764288
 C        -1.770165         0.575622         2.826127
 C        -0.372555         0.086387         2.363486
 H         1.253743        -0.033816         0.358825
 H        -1.721987         1.740699        -0.475785
 H        -2.048541         0.005744         0.401460
 H        -0.448817         3.255926         0.916426
 H         0.095866         2.606437         2.570758
 H        -1.595173         2.289633         4.257560
 H        -3.137137         1.193690         4.447907
 H        -2.553821        -0.170769         2.629967
 H         0.382796         0.266491         3.250840
 H        -0.360648        -0.925174         2.003025
