19
Iteration:  3191charge 0 multiplicity 1
 O         0.839232         0.674688         0.239656
 C        -0.253826         1.031998         1.037125
 C        -1.763377         0.898485         0.511239
 C        -1.971026         1.659002         1.803697
 C        -0.685494         2.478949         1.514385
 O        -3.018718         2.202576         2.657309
 C        -2.205909         1.599257         3.822149
 C        -1.578484         0.639836         2.882615
 C        -0.102379         0.247408         2.465972
 H         0.939330         1.339917        -0.518184
 H        -1.909922         1.709084        -0.259528
 H        -2.393806         0.075821         0.413028
 H        -0.901918         3.240695         0.829196
 H        -0.316636         2.885134         2.429999
 H        -1.577232         2.437077         4.143177
 H        -2.816527         1.255908         4.740619
 H        -2.211524        -0.213362         2.812009
 H         0.593098         0.597560         3.149615
 H         0.132948        -0.813679         2.264933
