19
Iteration:  1921
 O         0.873754         0.901326         0.241107
 C        -0.344769         1.021756         0.975861
 C        -1.819279         0.921602         0.576312
 C        -1.920611         1.587435         1.912795
 C        -0.601547         2.464080         1.422132
 O        -2.895010         2.249317         2.668758
 C        -2.278523         1.592659         3.855708
 C        -1.650518         0.476711         2.890839
 C        -0.162364         0.290730         2.371322
 H         1.096193        -0.093051         0.152606
 H        -1.865548         1.539885        -0.316447
 H        -2.090116        -0.078091         0.468084
 H        -1.229303         3.211719         0.841663
 H         0.138503         2.807233         2.194939
 H        -1.655537         2.110109         4.594798
 H        -3.220574         1.311552         4.365799
 H        -2.249020        -0.354005         2.602107
 H         0.587528         0.816197         3.095662
 H         0.101205        -0.714079         2.184737
