19
Iteration:  1106
 O         0.715090         0.934895         0.083075
 C        -0.266500         0.941624         1.089135
 C        -1.697705         0.888034         0.608693
 C        -1.866983         1.751056         1.851849
 C        -0.477684         2.366543         1.545830
 O        -2.997906         2.208408         2.650236
 C        -2.335609         1.637314         3.809330
 C        -1.604192         0.625961         2.883028
 C        -0.215475         0.182958         2.461245
 H         0.753231        -0.033889        -0.029610
 H        -1.715515         1.367766        -0.371773
 H        -2.199503        -0.078475         0.704549
 H        -0.409466         2.947641         0.678026
 H         0.089359         2.803742         2.328070
 H        -1.653293         2.453222         4.228406
 H        -3.031052         1.203212         4.471852
 H        -2.353737        -0.078434         2.580460
 H         0.552421         0.497838         3.161824
 H        -0.002520        -0.867623         2.325456
