19
Iteration:  1448
 O         0.836581         0.829783         0.041379
 C        -0.263488         0.988078         1.011909
 C        -1.780129         0.831548         0.553790
 C        -1.977513         1.655477         1.830944
 C        -0.661938         2.358865         1.643186
 O        -2.908034         2.286583         2.664035
 C        -2.304432         1.658246         3.798117
 C        -1.591967         0.615782         2.894676
 C        -0.179579         0.271754         2.486431
 H         1.434963         0.260291         0.502038
 H        -1.852364         1.431498        -0.375097
 H        -2.319602        -0.139372         0.544515
 H        -0.628602         3.260045         0.855832
 H        -0.117735         2.881027         2.458712
 H        -1.680410         2.379047         4.270490
 H        -3.134099         1.414546         4.455103
 H        -2.070389        -0.423630         2.883845
 H         0.681513         0.573695         3.093623
 H        -0.124345        -0.830838         2.189169
