19
Iteration:  4460charge 0 multiplicity 1
 O         0.797111         0.739183         0.185600
 C        -0.214343         1.091403         1.036109
 C        -1.704882         0.853361         0.592371
 C        -1.899966         1.628763         1.808108
 C        -0.670651         2.443550         1.499994
 O        -2.952402         2.309737         2.710258
 C        -2.377803         1.566132         3.802189
 C        -1.572163         0.613656         2.918196
 C        -0.150211         0.267552         2.478535
 H         0.758793         1.074842        -0.679045
 H        -2.056165         1.214314        -0.413134
 H        -1.832912        -0.315185         0.311527
 H        -0.863378         3.084215         0.588523
 H        -0.114331         2.975468         2.250432
 H        -1.651530         2.296339         4.399889
 H        -3.117782         1.079125         4.426732
 H        -2.288569        -0.253004         2.794497
 H         0.760269         0.526307         3.025794
 H        -0.088842        -0.814432         2.145648
