19
Iteration:  4325
 O         0.835786         0.735139         0.251585
 C        -0.194807         1.044179         1.104205
 C        -1.808328         0.865217         0.554798
 C        -1.943567         1.669065         1.758767
 C        -0.666132         2.450054         1.426409
 O        -2.975853         2.258137         2.670518
 C        -2.229513         1.563373         3.861356
 C        -1.576556         0.646041         2.853316
 C        -0.165035         0.246704         2.472867
 H         0.618031         1.180319        -0.584779
 H        -2.014482         1.423551        -0.411578
 H        -2.203825        -0.145395         0.532114
 H        -0.647312         3.028116         0.631813
 H        -0.211819         3.027223         2.245743
 H        -1.664605         2.298606         4.470544
 H        -2.936861         1.053079         4.584710
 H        -2.253774        -0.192973         2.766350
 H         0.598797         0.633665         3.131282
 H        -0.092723        -0.795830         2.304760
