19
Iteration:   306
 O         0.798318         0.708229         0.202147
 C        -0.232138         0.963689         1.056365
 C        -1.636424         0.924854         0.440031
 C        -1.871873         1.795738         1.884485
 C        -0.588835         2.430006         1.634695
 O        -2.842545         2.394967         2.722331
 C        -2.451614         1.573485         3.779269
 C        -1.747422         0.533376         2.772904
 C        -0.271927         0.126553         2.395661
 H         1.583088         1.195908         0.636451
 H        -1.758096         1.584663        -0.410647
 H        -2.186405        -0.028991         0.423993
 H        -0.568257         3.221026         0.916738
 H         0.008239         2.947357         2.549240
 H        -1.580034         2.073300         4.291571
 H        -3.177828         1.288361         4.549513
 H        -2.486199        -0.210317         2.469972
 H         0.699166         0.294736         2.985667
 H        -0.286147        -0.968794         2.034708
