19
Iteration:  2617charge 0 multiplicity 1
 O         0.796760         0.721773         0.191144
 C        -0.269846         1.050371         1.044975
 C        -1.752765         0.754495         0.591231
 C        -1.969294         1.674275         1.796441
 C        -0.662310         2.441988         1.579225
 O        -3.012518         2.183723         2.683961
 C        -2.236493         1.673028         3.827334
 C        -1.569961         0.721951         2.853980
 C        -0.142574         0.255263         2.385160
 H         0.889959         1.500303        -0.424239
 H        -1.847465         1.203168        -0.417743
 H        -2.199865        -0.288611         0.660811
 H        -0.492923         3.287081         0.873210
 H        -0.067114         2.838596         2.460328
 H        -1.383754         2.390567         4.257738
 H        -2.845070         1.317201         4.649213
 H        -2.117951        -0.172758         2.704791
 H         0.790432         0.600889         2.997972
 H        -0.103292        -0.806290         2.099273
