19
Iteration:   381
 O         0.818383         0.794554         0.191342
 C        -0.176279         1.044437         1.134932
 C        -1.768661         1.061184         0.462893
 C        -1.919783         1.647460         1.792239
 C        -0.561109         2.372354         1.734657
 O        -2.927070         2.263901         2.577539
 C        -2.330318         1.670882         3.819833
 C        -1.625098         0.606794         2.877188
 C        -0.296893         0.081887         2.378468
 H         0.798799        -0.133657         0.090534
 H        -1.543706         1.698332        -0.408412
 H        -2.245382         0.126214         0.085598
 H        -0.443305         3.244089         1.117960
 H         0.015125         2.796135         2.602107
 H        -1.524041         2.338515         4.264606
 H        -3.122215         1.533048         4.584352
 H        -2.407470        -0.146315         2.683029
 H         0.663948        -0.023716         2.961121
 H        -0.375891        -0.961251         2.114442
