19
Iteration:  3116
 O         0.779955         0.825058         0.226071
 C        -0.240402         0.999851         1.097990
 C        -1.735122         0.860501         0.572373
 C        -1.915530         1.586069         1.846642
 C        -0.676061         2.398422         1.504408
 O        -2.963543         2.289111         2.625463
 C        -2.237943         1.614646         3.822865
 C        -1.604500         0.573598         2.922198
 C        -0.148369         0.251586         2.377591
 H         0.523848         1.229282        -0.573563
 H        -1.788755         1.563101        -0.410862
 H        -2.111940        -0.154307         0.416311
 H        -0.700011         3.139494         0.718309
 H        -0.142555         2.908408         2.370403
 H        -1.622253         2.387182         4.162770
 H        -2.984704         1.343954         4.603811
 H        -2.173128        -0.344675         2.663227
 H         0.617864         0.709820         3.065194
 H        -0.046056        -0.808132         2.436754
