19
Iteration:  2922
 O         0.926429         0.821421         0.155399
 C        -0.175370         1.005558         1.083687
 C        -1.785282         0.839031         0.514178
 C        -1.976261         1.643613         1.825632
 C        -0.691422         2.393004         1.478595
 O        -2.982445         2.212847         2.693710
 C        -2.288324         1.740081         3.877309
 C        -1.622943         0.606653         2.948362
 C        -0.173290         0.137426         2.383525
 H         0.840728         1.603305        -0.366636
 H        -1.723542         1.448727        -0.399416
 H        -2.364159        -0.193048         0.565670
 H        -0.943131         3.017572         0.632860
 H        -0.171602         2.985084         2.244940
 H        -1.504479         2.487024         4.335370
 H        -2.982959         1.599589         4.731493
 H        -2.324871        -0.225506         2.974201
 H         0.765666         0.451446         2.980876
 H        -0.197760        -0.893298         2.182062
