19
Iteration:   836charge 0 multiplicity 1
 O         0.793632         0.734587         0.200055
 C        -0.251495         1.011160         1.061345
 C        -1.708971         0.993474         0.480710
 C        -1.949611         1.592921         1.839800
 C        -0.613252         2.400107         1.678747
 O        -2.903315         2.293101         2.623166
 C        -2.214041         1.674106         3.764754
 C        -1.644997         0.528038         2.902945
 C        -0.335284         0.148535         2.370145
 H         1.435286         1.515264         0.217876
 H        -1.761529         1.759522        -0.255785
 H        -2.153268         0.114775         0.106992
 H        -0.781478         3.256680         0.922489
 H        -0.110143         2.791753         2.574542
 H        -1.383847         2.401617         4.126921
 H        -2.895539         1.591080         4.632028
 H        -2.304533        -0.307674         2.993139
 H         0.511779         0.349220         3.039592
 H        -0.254263        -0.884043         2.087614
