19
Iteration:  4927charge 0 multiplicity 1
 O         0.911921         0.885400         0.182603
 C        -0.256656         1.010585         1.013424
 C        -1.713896         0.762572         0.554540
 C        -2.008214         1.646848         1.858292
 C        -0.780120         2.388595         1.513276
 O        -2.981706         2.303320         2.679553
 C        -2.191049         1.611866         3.848483
 C        -1.548782         0.644672         2.896330
 C        -0.193888         0.286833         2.416829
 H         0.844616         0.048431        -0.222026
 H        -1.948099         1.147051        -0.384393
 H        -2.053347        -0.305118         0.501525
 H        -0.897678         2.971804         0.597834
 H        -0.197795         2.930753         2.189996
 H        -1.585646         2.433680         4.352400
 H        -3.046507         1.211797         4.557160
 H        -2.310704        -0.195565         2.812910
 H         0.663857         0.570703         3.037123
 H        -0.097978        -0.824714         2.352343
