19
Iteration:  3161
 O         0.836708         0.680689         0.188049
 C        -0.234289         1.056224         1.005657
 C        -1.700310         0.884355         0.603808
 C        -1.950958         1.655421         1.877634
 C        -0.606177         2.413857         1.516793
 O        -3.033224         2.202846         2.691324
 C        -2.342920         1.624984         3.846478
 C        -1.578267         0.679372         2.875731
 C        -0.083303         0.277912         2.375553
 H         0.758093         1.140389        -0.626882
 H        -1.961001         1.552255        -0.284631
 H        -2.292594        -0.080458         0.463653
 H        -0.978582         3.171170         0.796590
 H         0.058620         2.962348         2.258585
 H        -1.883150         2.372385         4.470545
 H        -3.086312         1.097083         4.429254
 H        -2.218291        -0.229498         2.770927
 H         0.575611         0.730641         3.097460
 H         0.069898        -0.744856         2.140348
