19
Iteration:  3729charge 0 multiplicity 1
 O         0.868843         0.736596         0.238245
 C        -0.247744         0.937376         1.062014
 C        -1.776671         0.877938         0.531002
 C        -2.041114         1.655997         1.774657
 C        -0.635595         2.411796         1.574254
 O        -3.001025         2.168489         2.701768
 C        -2.165023         1.715577         3.761946
 C        -1.578909         0.633636         2.833157
 C        -0.215983         0.282720         2.434239
 H         0.805385         1.588410        -0.347115
 H        -1.610228         1.492540        -0.367600
 H        -2.263810        -0.119934         0.427100
 H        -0.881008         3.147806         0.736425
 H        -0.040346         2.832087         2.357643
 H        -1.602062         2.608071         4.195081
 H        -2.799291         1.328874         4.671459
 H        -2.213274        -0.247411         2.950953
 H         0.573541         0.615165         3.061422
 H         0.016120        -0.697692         2.421610
