19
Iteration:  1226
 O         0.698335         0.755016         0.004705
 C        -0.253028         1.001629         1.089676
 C        -1.699645         0.832979         0.536378
 C        -1.926820         1.518295         1.906657
 C        -0.633903         2.457162         1.590623
 O        -2.947615         2.322854         2.598423
 C        -2.389724         1.722695         3.871771
 C        -1.547423         0.582753         2.969512
 C        -0.111999         0.254332         2.416234
 H         1.617037         0.780213         0.395313
 H        -1.738848         1.618008        -0.218699
 H        -2.047043        -0.154103         0.174192
 H        -0.871411         3.135998         0.845800
 H         0.062494         2.892945         2.344178
 H        -1.904967         2.597296         4.458804
 H        -3.100786         1.189086         4.403577
 H        -2.186173        -0.275555         2.935166
 H         0.749162         0.516873         3.047085
 H         0.090611        -0.765367         2.188440
