19
Iteration:  1810
 O         0.871864         0.987859         0.169311
 C        -0.245623         0.964460         1.040128
 C        -1.714088         0.807083         0.453928
 C        -1.923017         1.618838         1.880103
 C        -0.587895         2.404232         1.541625
 O        -3.026999         2.256762         2.786925
 C        -2.240630         1.665962         3.845278
 C        -1.663892         0.564633         2.869971
 C        -0.258222         0.188158         2.343608
 H         1.020054         0.085949        -0.059914
 H        -1.760471         1.328459        -0.468969
 H        -2.196243        -0.171222         0.487512
 H        -0.761907         2.920625         0.554153
 H        -0.053085         3.098682         2.281598
 H        -1.502799         2.518283         4.107520
 H        -2.726668         1.302168         4.753342
 H        -2.489966        -0.111275         2.849077
 H         0.611809         0.638965         2.912495
 H        -0.121111        -0.857497         2.392458
