19
Iteration:  4546charge 0 multiplicity 1
 O         0.924131         0.774708         0.222199
 C        -0.229061         0.982797         1.025934
 C        -1.724105         0.797470         0.523600
 C        -2.006823         1.611591         1.759944
 C        -0.719124         2.505190         1.468946
 O        -3.005917         2.292588         2.803347
 C        -2.222258         1.667377         3.887936
 C        -1.616230         0.632236         2.845175
 C        -0.224475         0.185525         2.387074
 H         1.021822         1.559153        -0.300283
 H        -1.880646         1.313109        -0.385170
 H        -1.945293        -0.331693         0.566804
 H        -0.881688         3.122725         0.659186
 H        -0.168093         3.064179         2.240612
 H        -1.497444         2.524490         4.116460
 H        -2.908955         1.044313         4.564396
 H        -2.190680        -0.305054         2.873020
 H         0.609261         0.452765         3.007162
 H        -0.007586        -0.887787         2.272892
