19
Iteration:  4775
 O         0.788971         0.743307         0.132440
 C        -0.242522         0.971919         1.062800
 C        -1.678668         0.865301         0.524355
 C        -1.961764         1.610812         1.864609
 C        -0.684695         2.470533         1.559558
 O        -2.998529         2.195047         2.663732
 C        -2.276385         1.716890         3.810611
 C        -1.605955         0.603652         2.895367
 C        -0.103771         0.250530         2.471581
 H         0.670754         1.341684        -0.606045
 H        -1.663760         1.483081        -0.326690
 H        -2.034142        -0.215997         0.525729
 H        -0.992712         3.155640         0.828106
 H        -0.128800         3.035122         2.360340
 H        -1.569410         2.384567         4.196115
 H        -3.062560         1.492352         4.611271
 H        -2.192886        -0.296868         2.917099
 H         0.693699         0.763462         3.005672
 H         0.214698        -0.820519         2.285532
