19
Iteration:  3492
 O         0.831152         0.671638         0.180228
 C        -0.198481         1.039635         1.066576
 C        -1.723497         0.939484         0.489175
 C        -1.924678         1.681977         1.850112
 C        -0.661354         2.428568         1.523721
 O        -3.022614         2.184877         2.654812
 C        -2.314585         1.586475         3.852381
 C        -1.559528         0.667928         2.931238
 C        -0.144470         0.280917         2.454455
 H         0.567397         1.196037        -0.658934
 H        -1.858273         1.553841        -0.371737
 H        -2.318372        -0.087903         0.408602
 H        -0.747440         3.128982         0.627284
 H         0.006044         2.835013         2.331359
 H        -1.626233         2.421377         4.379871
 H        -2.938610         1.284829         4.674970
 H        -2.250551        -0.197965         2.787563
 H         0.656227         0.610096         3.060931
 H        -0.166272        -0.735502         2.193147
