19
Iteration:  1510
 O         0.924801         0.877940         0.208588
 C        -0.265979         0.971180         1.078590
 C        -1.910360         0.845780         0.483053
 C        -2.006347         1.690203         1.833835
 C        -0.605120         2.387150         1.590300
 O        -3.054230         2.247533         2.668445
 C        -2.192116         1.715217         3.816071
 C        -1.573841         0.577838         2.798632
 C        -0.113390         0.202725         2.419784
 H         1.059962        -0.052381         0.237257
 H        -2.110362         1.468341        -0.408361
 H        -2.615968         0.009831         0.385404
 H        -0.694313         3.002251         0.672436
 H         0.037423         2.832666         2.428358
 H        -1.310157         2.385068         4.205053
 H        -2.773054         1.396475         4.691076
 H        -2.277496        -0.269787         2.885624
 H         0.602722         0.651264         3.088633
 H         0.095409        -0.885232         2.337366
