19
Iteration:  3570charge 0 multiplicity 1
 O         0.892114         0.826157         0.247818
 C        -0.257493         1.008354         1.063442
 C        -1.802133         0.810504         0.567851
 C        -1.997504         1.616971         1.828990
 C        -0.643547         2.396014         1.536254
 O        -2.947622         2.273164         2.641648
 C        -2.189662         1.637827         3.828043
 C        -1.632290         0.597883         2.854994
 C        -0.210067         0.232612         2.421615
 H         0.820592         1.518810        -0.491199
 H        -1.919047         1.428351        -0.333731
 H        -2.163920        -0.251186         0.500108
 H        -0.833908         3.017953         0.649422
 H        -0.154010         3.118994         2.266126
 H        -1.297569         2.303499         4.062927
 H        -2.935811         1.365277         4.619448
 H        -2.350336        -0.247594         2.832176
 H         0.682746         0.538646         2.919659
 H        -0.226907        -0.767538         2.336238
