19
Iteration:  1932charge 0 multiplicity 1
 O         0.900918         0.877828         0.203948
 C        -0.227386         1.063335         0.970968
 C        -1.822939         0.912658         0.529803
 C        -1.923008         1.626676         1.891004
 C        -0.659439         2.422061         1.491142
 O        -2.927248         2.204153         2.656550
 C        -2.286833         1.582633         3.918679
 C        -1.631591         0.524728         2.883477
 C        -0.222746         0.281850         2.372754
 H         1.109368        -0.078603         0.157214
 H        -2.085903         1.592552        -0.290612
 H        -2.362287         0.013082         0.368170
 H        -0.741809         3.242453         0.699138
 H         0.014625         2.889236         2.268259
 H        -1.655154         2.414804         4.224658
 H        -2.941588         1.125999         4.698355
 H        -2.362191        -0.263821         2.887064
 H         0.618828         0.752060         3.014398
 H         0.056269        -0.743074         2.311067
