19
Iteration:  3200
 O         0.887870         0.701672         0.202555
 C        -0.202350         0.994833         1.058856
 C        -1.787028         0.914110         0.515766
 C        -1.997164         1.646799         1.852450
 C        -0.698471         2.422088         1.568104
 O        -3.056452         2.195971         2.704233
 C        -2.184317         1.691018         3.829203
 C        -1.586444         0.605658         2.811172
 C        -0.166618         0.289322         2.432820
 H         0.968780         1.355141        -0.569851
 H        -1.818993         1.468665        -0.429231
 H        -2.187677        -0.026124         0.346414
 H        -0.865715         3.085815         0.741889
 H        -0.021333         2.808700         2.288921
 H        -1.423428         2.366004         4.284430
 H        -2.950183         1.267667         4.554857
 H        -2.336451        -0.148332         2.735684
 H         0.675184         0.744663         3.067386
 H         0.062121        -0.837518         2.456779
