19
Iteration:  3668
 O         0.887800         0.752486         0.173267
 C        -0.231207         0.949076         1.041218
 C        -1.800639         0.870355         0.486311
 C        -1.969056         1.671719         1.809596
 C        -0.601579         2.409361         1.507216
 O        -2.991094         2.263449         2.669893
 C        -2.378821         1.635176         3.925341
 C        -1.549789         0.653878         2.893545
 C        -0.105362         0.257282         2.496265
 H         0.622877         1.168910        -0.723960
 H        -2.038788         1.349857        -0.459414
 H        -2.196533        -0.197229         0.438704
 H        -0.882082         3.169648         0.777691
 H         0.038277         2.959600         2.331553
 H        -1.793428         2.432701         4.352633
 H        -3.114168         1.189969         4.546675
 H        -2.174505        -0.253557         2.773941
 H         0.745999         0.712898         3.038231
 H         0.025871        -0.931838         2.325435
