19
Iteration:  3251
 O         0.829265         0.819881         0.240312
 C        -0.185789         0.988953         1.120803
 C        -1.758284         0.879378         0.537764
 C        -1.970214         1.584626         1.801805
 C        -0.681006         2.421901         1.548230
 O        -2.937966         2.269175         2.661210
 C        -2.286803         1.691850         3.798211
 C        -1.531062         0.575655         2.933515
 C        -0.177331         0.161512         2.355740
 H         0.881869         1.454357        -0.495035
 H        -2.092492         1.223922        -0.422679
 H        -2.447445        -0.120577         0.521381
 H        -0.808817         3.119258         0.579475
 H        -0.371864         3.092008         2.404370
 H        -1.568447         2.411764         4.200116
 H        -2.967410         1.375636         4.494074
 H        -2.379140        -0.134801         3.142613
 H         0.761573         0.542717         2.855949
 H        -0.236220        -0.820344         1.950557
