19
Iteration:   113charge 0 multiplicity 1
 O         0.841048         0.603315         0.203879
 C        -0.184224         1.047548         1.056747
 C        -1.783436         1.126069         0.468961
 C        -1.944957         1.731169         1.894289
 C        -0.364017         2.405681         1.717727
 O        -2.945338         2.313052         2.608506
 C        -2.385138         1.558101         3.792705
 C        -1.785026         0.554762         2.787290
 C        -0.292713         0.163011         2.425529
 H         1.594838         1.274328         0.198682
 H        -1.667099         1.879465        -0.338473
 H        -2.370820         0.202737         0.230933
 H        -0.267938         3.244840         1.122353
 H         0.197580         2.526170         2.716303
 H        -1.525939         2.045692         4.260135
 H        -3.249887         1.208152         4.388055
 H        -2.444418        -0.329977         2.504370
 H         0.531306         0.360180         3.024535
 H        -0.320252        -0.892380         1.976624
