19
Iteration:  2275charge 0 multiplicity 1
 O         0.869447         0.751218         0.150947
 C        -0.235354         1.037947         1.066125
 C        -1.786463         0.840284         0.470662
 C        -1.970526         1.712997         1.812045
 C        -0.733351         2.571209         1.571670
 O        -3.004107         2.247889         2.727354
 C        -2.218087         1.588901         3.883880
 C        -1.562444         0.609866         2.858976
 C        -0.171900         0.123919         2.351466
 H         1.594283         1.414158         0.400409
 H        -1.982751         1.286835        -0.522113
 H        -2.233467        -0.127114         0.566099
 H        -0.778109         3.310651         0.736881
 H        -0.001664         2.869824         2.428173
 H        -1.621257         2.409172         4.221535
 H        -2.874823         1.233390         4.719612
 H        -2.286381        -0.225102         2.865421
 H         0.664326         0.282868         2.985330
 H        -0.252211        -1.042720         2.166199
