19
Iteration:  2862
 O         0.848911         0.659983         0.135506
 C        -0.143963         1.037955         1.060710
 C        -1.625812         0.901594         0.418371
 C        -2.023290         1.625157         1.880126
 C        -0.718449         2.420718         1.492650
 O        -3.069126         2.255133         2.775814
 C        -2.232091         1.692781         3.872590
 C        -1.587500         0.570476         2.928967
 C        -0.195735         0.279035         2.452267
 H         0.768975         1.250286        -0.596095
 H        -1.855264         1.566477        -0.408206
 H        -2.013786         0.027480         0.066623
 H        -0.963301         3.114056         0.626269
 H        -0.267006         3.150310         2.221494
 H        -1.438833         2.416571         4.062089
 H        -2.961443         1.304296         4.680223
 H        -2.124723        -0.427061         2.829506
 H         0.624067         0.715846         3.013852
 H         0.014567        -0.880632         2.464973
