19
Iteration:  4019charge 0 multiplicity 1
 O         0.854841         0.774702         0.149471
 C        -0.213768         0.928805         1.065115
 C        -1.767639         0.847151         0.486767
 C        -1.966836         1.689607         1.857770
 C        -0.634187         2.477327         1.474496
 O        -3.007598         2.260770         2.646585
 C        -2.345991         1.639549         3.865261
 C        -1.552667         0.619599         2.939450
 C        -0.115759         0.178891         2.525411
 H         0.652185         1.553416        -0.376077
 H        -1.791461         1.361983        -0.569246
 H        -2.342344        -0.034311         0.362257
 H        -0.913179         3.100303         0.657572
 H         0.097324         2.995532         2.176249
 H        -1.537987         2.401472         4.278623
 H        -3.051820         1.210132         4.518531
 H        -2.251617        -0.236934         3.006036
 H         0.696624         0.679457         3.030742
 H        -0.011017        -0.954748         2.411747
