19
Iteration:  1424
 O         0.758438         0.821479         0.137846
 C        -0.258223         0.980404         1.104491
 C        -1.762128         0.892015         0.504699
 C        -1.938357         1.714599         1.855740
 C        -0.590645         2.352617         1.445749
 O        -2.959447         2.255278         2.680156
 C        -2.268470         1.583377         3.904141
 C        -1.630736         0.627433         2.839672
 C        -0.202860         0.246479         2.458882
 H         1.528791         0.456239         0.562977
 H        -1.810516         1.457977        -0.438983
 H        -2.239644        -0.104839         0.517451
 H        -0.508740         3.071436         0.500754
 H         0.139448         3.000583         2.098456
 H        -1.495409         2.123584         4.428115
 H        -3.096241         1.310341         4.506877
 H        -2.216456        -0.282352         2.550464
 H         0.338043         0.948444         3.078525
 H         0.323620        -0.751020         2.545737
