19
Iteration:  1515
 O         0.925766         0.884656         0.230327
 C        -0.290853         0.982425         1.054595
 C        -1.897147         0.850002         0.455891
 C        -2.024789         1.674360         1.833748
 C        -0.649122         2.387179         1.582829
 O        -3.015215         2.285914         2.683606
 C        -2.193132         1.688960         3.802175
 C        -1.548194         0.543107         2.850097
 C        -0.120183         0.214091         2.435167
 H         1.013235        -0.131543         0.132250
 H        -1.996244         1.419755        -0.481245
 H        -2.537242        -0.057881         0.414967
 H        -0.657059         3.136299         0.659533
 H         0.103268         2.823391         2.268491
 H        -1.374782         2.215629         4.137328
 H        -2.897087         1.453722         4.616054
 H        -2.270548        -0.294772         2.824491
 H         0.688271         0.738387         3.021783
 H        -0.021786        -0.884886         2.412153
