19
Iteration:  3411
 O         0.904765         0.737022         0.234651
 C        -0.270720         0.972507         0.966457
 C        -1.736324         0.869685         0.525606
 C        -2.007388         1.598245         1.827185
 C        -0.676147         2.415486         1.555085
 O        -3.052035         2.205894         2.725440
 C        -2.217997         1.722361         3.889197
 C        -1.623988         0.685916         2.875652
 C        -0.146220         0.256963         2.344180
 H         1.034244         1.567606        -0.336233
 H        -1.605938         1.362648        -0.512399
 H        -2.216758         0.000327         0.205448
 H        -0.772565         3.195439         0.795747
 H         0.038273         2.692319         2.352490
 H        -1.426931         2.444071         4.166986
 H        -2.971669         1.447126         4.657048
 H        -2.165378        -0.259721         2.985207
 H         0.728512         0.378565         3.065381
 H        -0.205827        -0.953912         2.264493
