19
Iteration:  4733
 O         0.868714         0.705626         0.230895
 C        -0.299723         0.992267         1.013234
 C        -1.804553         0.904790         0.506741
 C        -1.950127         1.666977         1.863312
 C        -0.664697         2.447148         1.540803
 O        -3.056236         2.079989         2.687350
 C        -2.261238         1.791884         3.821329
 C        -1.495980         0.617677         2.926992
 C        -0.131947         0.220722         2.328737
 H         1.117837         1.589049         0.089822
 H        -1.858484         1.601530        -0.276815
 H        -2.298611        -0.105965         0.485906
 H        -0.729804         3.237613         0.735482
 H         0.062617         2.984578         2.368945
 H        -1.701274         2.628471         4.044973
 H        -2.842568         1.405325         4.652501
 H        -2.252403        -0.133444         2.788944
 H         0.696570         0.612199         2.838909
 H         0.040713        -0.881519         2.367786
