19
Iteration:  2761
 O         0.788130         0.730885         0.163779
 C        -0.211752         1.003772         1.115191
 C        -1.778039         0.802553         0.582713
 C        -2.035380         1.657003         1.754494
 C        -0.794939         2.424226         1.585214
 O        -3.006511         2.257725         2.692806
 C        -2.125265         1.648422         3.781844
 C        -1.567853         0.691097         2.822441
 C        -0.092130         0.219706         2.418374
 H         1.393179         1.530200         0.059037
 H        -1.790193         1.330474        -0.330690
 H        -2.167993        -0.200822         0.661709
 H        -0.710008         3.075610         0.711369
 H        -0.295274         2.928251         2.439114
 H        -1.401135         2.465375         4.140383
 H        -2.713208         1.184816         4.607242
 H        -2.260644        -0.142685         2.737778
 H         0.625657         0.731637         3.092729
 H         0.009404        -0.867341         2.252035
