19
Iteration:  4687charge 0 multiplicity 1
 O         0.850208         0.826500         0.189105
 C        -0.260600         1.013687         1.027282
 C        -1.671607         0.718659         0.486376
 C        -1.965626         1.626559         1.767648
 C        -0.752460         2.352761         1.521449
 O        -2.880197         2.352948         2.754979
 C        -2.310647         1.667009         3.861302
 C        -1.660424         0.583509         2.902917
 C        -0.127387         0.250424         2.381238
 H         0.836629         1.544460        -0.441786
 H        -1.899405         1.378545        -0.379182
 H        -2.107745        -0.345702         0.584839
 H        -0.837257         3.155881         0.790933
 H        -0.396821         2.902778         2.543030
 H        -1.560907         2.158620         4.342588
 H        -3.172146         1.299379         4.546058
 H        -2.301638        -0.289593         2.865776
 H         0.646962         0.803474         2.963707
 H         0.200379        -0.811177         2.501119
