19
Iteration:  3911
 O         0.861650         0.791631         0.214496
 C        -0.225837         0.990844         1.019933
 C        -1.802952         0.764536         0.516983
 C        -1.974737         1.631052         1.842133
 C        -0.705880         2.380323         1.600855
 O        -2.967490         2.298869         2.594494
 C        -2.197983         1.688492         3.832866
 C        -1.586982         0.626421         2.907174
 C        -0.204212         0.287504         2.407100
 H         1.038307         1.507660        -0.323244
 H        -1.654941         1.133523        -0.567624
 H        -2.324822        -0.122241         0.487622
 H        -0.813929         3.212286         0.983919
 H        -0.318057         2.733108         2.541678
 H        -1.567542         2.368026         4.363401
 H        -2.735406         1.265716         4.629205
 H        -2.193260        -0.304707         2.893649
 H         0.700128         0.440192         3.086952
 H        -0.116206        -0.890612         2.234963
