19
Iteration:  2901charge 0 multiplicity 1
 O         0.877280         0.889462         0.281318
 C        -0.344738         0.976125         1.017559
 C        -1.840008         0.791007         0.621589
 C        -1.893129         1.613800         1.825102
 C        -0.591358         2.382706         1.544269
 O        -3.007422         2.277923         2.601846
 C        -2.230744         1.668890         3.816115
 C        -1.525284         0.574586         2.876227
 C        -0.214421         0.207472         2.356663
 H         0.827900         1.608323        -0.444787
 H        -2.255220         1.357543        -0.258266
 H        -2.106713        -0.369425         0.836465
 H        -0.674000         3.039136         0.698035
 H         0.088792         2.837055         2.263294
 H        -1.459768         2.469505         4.111009
 H        -2.905602         1.483612         4.630972
 H        -2.219330        -0.226090         2.967017
 H         0.596409         0.562022         3.046958
 H        -0.194314        -0.797097         2.130839
