19
Iteration:  2252charge 0 multiplicity 1
 O         0.704372         0.902727         0.125414
 C        -0.245356         1.017777         1.082632
 C        -1.703888         0.899987         0.544925
 C        -1.898818         1.595820         1.867604
 C        -0.601123         2.388985         1.512904
 O        -2.967185         2.256239         2.656594
 C        -2.218102         1.603031         3.851740
 C        -1.599221         0.555748         2.870514
 C        -0.225842         0.209866         2.389099
 H         1.525458         0.882850         0.575342
 H        -1.905011         1.647148        -0.230283
 H        -2.223035        -0.055871         0.291018
 H        -0.860829         2.934309         0.605713
 H        -0.035047         3.079169         2.247813
 H        -1.523960         2.261696         4.385044
 H        -3.065200         1.261072         4.533729
 H        -2.296665        -0.299486         2.963597
 H         0.517840         0.662519         3.037389
 H        -0.085096        -0.949946         2.440306
