19
Iteration:   976
 O         0.854637         0.793960         0.190679
 C        -0.242673         0.926690         1.049998
 C        -1.848148         0.960572         0.547753
 C        -1.927730         1.643449         1.871792
 C        -0.562606         2.361593         1.657492
 O        -2.937778         2.359516         2.569496
 C        -2.330523         1.682017         3.834650
 C        -1.643430         0.522882         2.941495
 C        -0.148783         0.134698         2.325602
 H         0.783129         1.477667        -0.563830
 H        -1.881104         1.697644        -0.261608
 H        -2.300091         0.029456         0.255695
 H        -0.520716         3.223795         0.989011
 H         0.011076         2.675342         2.698892
 H        -1.775024         2.418232         4.330407
 H        -3.021637         1.252482         4.520250
 H        -2.333716        -0.280876         2.985841
 H         0.770524         0.409302         2.887895
 H        -0.015201        -0.924004         2.050508
