19
Iteration:   395
 O         0.871338         0.846649         0.190635
 C        -0.246140         0.948028         1.050971
 C        -1.693804         1.011762         0.445470
 C        -1.859259         1.748650         1.841277
 C        -0.484064         2.433463         1.663934
 O        -2.949153         2.269924         2.655944
 C        -2.308785         1.657224         3.773138
 C        -1.722840         0.581959         2.843434
 C        -0.317178         0.045924         2.475948
 H         0.718648         0.028652        -0.400620
 H        -1.809793         1.605438        -0.482736
 H        -2.302689         0.128969         0.476085
 H        -0.651360         3.194179         0.919751
 H         0.066507         2.598487         2.690875
 H        -1.703120         2.426573         4.316273
 H        -3.065738         1.136877         4.427045
 H        -2.509246        -0.203622         2.789319
 H         0.450085         0.401248         3.199998
 H        -0.416456        -1.076921         2.189570
