19
Iteration:  2588charge 0 multiplicity 1
 O         0.821576         0.914644         0.083255
 C        -0.227243         1.016215         1.033281
 C        -1.709504         0.911317         0.467572
 C        -1.953745         1.519764         1.878461
 C        -0.669093         2.331968         1.519342
 O        -2.973467         2.224604         2.661814
 C        -2.209578         1.753121         3.806929
 C        -1.650579         0.577829         2.969892
 C        -0.212084         0.185809         2.619284
 H         0.568075         0.540874        -0.744787
 H        -1.774360         1.645974        -0.302316
 H        -2.172083         0.015285         0.146682
 H        -0.907785         2.982246         0.678319
 H         0.035283         2.954321         2.154886
 H        -1.377839         2.310502         4.067234
 H        -2.827154         1.658288         4.733674
 H        -2.214702        -0.370301         2.911630
 H         0.610831         0.599251         3.195133
 H         0.009484        -0.895617         2.506179
