19
Iteration:  3290charge 0 multiplicity 1
 O         0.855838         0.693291         0.180707
 C        -0.205616         0.978888         1.057082
 C        -1.765906         0.928385         0.500195
 C        -1.905123         1.678089         1.784807
 C        -0.650565         2.452221         1.528254
 O        -3.070525         2.166913         2.713637
 C        -2.215911         1.654631         3.841342
 C        -1.606667         0.635501         2.905469
 C        -0.184515         0.286285         2.444624
 H         0.807091         1.356925        -0.574087
 H        -1.898496         1.604917        -0.413481
 H        -2.464134         0.104545         0.304992
 H        -0.639376         3.032401         0.664896
 H        -0.148042         2.790700         2.446605
 H        -1.485850         2.364368         4.344674
 H        -2.979778         1.131921         4.560939
 H        -2.218691        -0.254427         2.752355
 H         0.667054         0.748433         3.027956
 H         0.144674        -0.798676         2.638577
