19
Iteration:  4868charge 0 multiplicity 1
 O         0.801091         0.867106         0.106329
 C        -0.188966         0.955986         1.078845
 C        -1.836039         0.839490         0.571679
 C        -2.006992         1.732902         1.802310
 C        -0.638560         2.432804         1.618017
 O        -3.091803         2.126292         2.657890
 C        -2.185028         1.697034         3.786107
 C        -1.585885         0.629971         2.850390
 C        -0.077553         0.231251         2.488671
 H         1.262890        -0.002402        -0.075372
 H        -1.762614         1.383498        -0.414632
 H        -2.354457        -0.093768         0.624738
 H        -0.509323         3.146737         0.629840
 H         0.004029         2.886161         2.479706
 H        -1.472612         2.505514         4.008995
 H        -2.737639         1.449875         4.630641
 H        -2.327643        -0.146950         2.593891
 H         0.626656         0.788397         3.143154
 H         0.079857        -0.823371         2.598308
