19
Iteration:  1238
 O         0.665681         0.730053         0.007360
 C        -0.184564         1.071260         1.026369
 C        -1.704124         0.852764         0.508000
 C        -1.922650         1.669855         1.839469
 C        -0.661541         2.446178         1.631338
 O        -2.946562         2.247041         2.588342
 C        -2.320370         1.654713         3.848811
 C        -1.554691         0.618332         2.947647
 C        -0.118927         0.225469         2.521332
 H         1.547437         0.502543         0.262558
 H        -1.827440         1.321705        -0.479400
 H        -2.188809        -0.147044         0.492528
 H        -0.825664         3.224648         0.982405
 H        -0.290679         2.861069         2.596370
 H        -1.702559         2.430971         4.503643
 H        -3.140661         1.303776         4.452258
 H        -2.178852        -0.254437         2.952256
 H         0.655692         0.726348         3.113032
 H        -0.016854        -0.845080         2.505832
