19
Iteration:  1765
 O         0.858211         0.883708         0.205013
 C        -0.206775         0.973365         1.024889
 C        -1.854141         0.890672         0.444547
 C        -1.975856         1.677636         1.801061
 C        -0.676909         2.355586         1.524784
 O        -2.950103         2.302367         2.761114
 C        -2.317306         1.599978         3.814299
 C        -1.549591         0.563552         2.905154
 C        -0.122065         0.276889         2.403865
 H         1.116692        -0.007304        -0.011314
 H        -2.120563         1.490505        -0.426161
 H        -2.222465        -0.176456         0.520881
 H        -0.823729         3.194592         0.756780
 H        -0.009908         2.747008         2.378445
 H        -1.592160         2.092116         4.586593
 H        -3.214000         1.259677         4.350677
 H        -2.207324        -0.337864         2.927541
 H         0.704486         0.715427         3.010335
 H         0.210198        -0.776579         2.226284
