19
Iteration:  1643
 O         0.831692         0.929960         0.243893
 C        -0.282460         0.994788         1.054732
 C        -1.803752         0.712292         0.488979
 C        -1.958520         1.700176         1.836756
 C        -0.648250         2.485677         1.506784
 O        -2.939225         2.241156         2.779149
 C        -2.211981         1.628214         3.760670
 C        -1.592642         0.658943         2.848162
 C        -0.219180         0.188440         2.369379
 H         1.128355         0.038814         0.253053
 H        -1.967042         1.387564        -0.407387
 H        -2.115760        -0.398331         0.458029
 H        -0.758179         3.284655         0.670820
 H        -0.030394         2.765210         2.402664
 H        -1.347932         2.351235         4.206068
 H        -2.820614         1.329699         4.661612
 H        -2.311463        -0.186549         2.573487
 H         0.607479         0.459532         2.979900
 H        -0.126426        -0.960881         2.251582
