19
Iteration:  1261
 O         0.728695         0.722094         0.073427
 C        -0.252963         0.974939         1.093817
 C        -1.743292         0.834731         0.559339
 C        -1.948089         1.755252         1.867971
 C        -0.520217         2.450902         1.545234
 O        -3.102100         2.180626         2.709500
 C        -2.232278         1.613198         3.808912
 C        -1.596234         0.638432         2.795981
 C        -0.157300         0.328134         2.468169
 H         1.656391         0.604361         0.408761
 H        -1.644609         1.462658        -0.340574
 H        -2.340969        -0.066171         0.366922
 H        -0.474652         3.119433         0.693952
 H         0.131688         2.890875         2.332483
 H        -1.533169         2.476989         4.198781
 H        -2.861427         1.231378         4.679535
 H        -2.250355        -0.231319         2.661047
 H         0.537707         0.887254         3.110912
 H         0.083120        -0.749814         2.484920
