19
Iteration:  1948
 O         0.900863         0.882186         0.132936
 C        -0.226723         0.973629         1.094647
 C        -1.818849         0.949583         0.448019
 C        -2.007805         1.660859         1.775391
 C        -0.626353         2.399069         1.595631
 O        -3.102294         2.177087         2.773566
 C        -2.209772         1.638536         3.812008
 C        -1.554321         0.689479         2.874607
 C        -0.135263         0.205966         2.414382
 H         1.084286        -0.110137         0.052499
 H        -1.821357         1.460237        -0.528012
 H        -2.197671        -0.125919         0.355933
 H        -0.749909         3.125203         0.774775
 H        -0.177245         2.885855         2.468977
 H        -1.518160         2.310663         4.397392
 H        -2.939224         1.256229         4.578339
 H        -2.161827        -0.235660         2.690698
 H         0.717986         0.441505         2.990496
 H        -0.129196        -0.932346         2.340458
