19
Iteration:  2537charge 0 multiplicity 1
 O         0.839644         0.726377         0.137584
 C        -0.246741         1.067815         0.984615
 C        -1.795798         0.842550         0.601970
 C        -1.901483         1.743621         1.868515
 C        -0.623234         2.556911         1.442054
 O        -3.005452         2.204297         2.699664
 C        -2.276225         1.601870         3.868647
 C        -1.618308         0.620660         2.934545
 C        -0.190120         0.181809         2.368556
 H         1.705753         0.975937         0.580537
 H        -1.921534         1.335792        -0.473741
 H        -2.120087        -0.230119         0.582731
 H        -0.670786         3.263385         0.589003
 H        -0.233576         2.942764         2.341103
 H        -1.541987         2.333117         4.378188
 H        -3.002254         1.231678         4.654900
 H        -2.252956        -0.282798         2.730788
 H         0.665746         0.297465         3.008085
 H        -0.218328        -0.919419         2.183201
