19
Iteration:  1938charge 0 multiplicity 1
 O         0.910551         0.875368         0.170171
 C        -0.190892         1.057560         1.005646
 C        -1.818658         0.914917         0.468511
 C        -1.958350         1.641458         1.843214
 C        -0.651752         2.419278         1.552854
 O        -2.979665         2.196082         2.691909
 C        -2.283830         1.569181         3.891076
 C        -1.588988         0.613349         2.909422
 C        -0.216119         0.247038         2.389175
 H         1.079766        -0.118510         0.155834
 H        -2.108346         1.620804        -0.330891
 H        -2.463932        -0.043283         0.451777
 H        -0.670747         2.982800         0.647131
 H        -0.102952         2.866500         2.353973
 H        -1.581934         2.374676         4.172582
 H        -2.838535         1.182169         4.737851
 H        -2.306173        -0.247300         2.896194
 H         0.546264         0.769989         2.933846
 H        -0.002901        -0.857984         2.269624
