19
Iteration:  1885
 O         0.869535         0.885786         0.036133
 C        -0.212149         0.964632         1.043168
 C        -1.730420         0.841997         0.522464
 C        -2.003646         1.688664         1.785325
 C        -0.607072         2.413611         1.558269
 O        -3.000198         2.235166         2.752015
 C        -2.327545         1.533941         3.905721
 C        -1.564372         0.760874         2.836310
 C        -0.200626         0.225247         2.508922
 H         1.065265        -0.049828        -0.300427
 H        -1.737069         1.309859        -0.469696
 H        -2.336986        -0.119447         0.456673
 H        -0.717262         3.227938         0.907957
 H        -0.069707         2.856869         2.381038
 H        -1.650027         1.980294         4.605517
 H        -3.124226         1.076100         4.366663
 H        -2.292469        -0.032352         2.742288
 H         0.574321         0.747754         3.153306
 H         0.067841        -0.850139         2.423174
