19
Iteration:  1706charge 0 multiplicity 1
 O         0.752241         0.864264         0.142715
 C        -0.234962         0.976213         1.099935
 C        -1.706248         0.833841         0.509866
 C        -1.896685         1.663580         1.841692
 C        -0.611546         2.454342         1.646586
 O        -3.083430         2.233636         2.623830
 C        -2.217161         1.607462         3.841156
 C        -1.555368         0.646150         2.916281
 C        -0.156702         0.242016         2.366233
 H         0.835690        -0.042370        -0.155534
 H        -1.942609         1.515027        -0.422434
 H        -2.119019        -0.190318         0.200264
 H        -0.767596         3.206632         0.905518
 H        -0.068601         2.830194         2.501870
 H        -1.535587         2.360363         4.207490
 H        -2.914218         1.280640         4.630150
 H        -2.335434        -0.157557         2.828230
 H         0.656361         0.690710         2.956835
 H        -0.029767        -0.916477         2.223368
