19
Iteration:   714
 O         0.770934         0.700676         0.185697
 C        -0.225080         1.085107         1.084328
 C        -1.681971         0.995292         0.533937
 C        -1.941353         1.770012         1.888589
 C        -0.517260         2.421199         1.554195
 O        -3.049939         2.189842         2.658144
 C        -2.282163         1.669720         3.827892
 C        -1.617545         0.562799         2.854042
 C        -0.234461         0.138761         2.342095
 H         1.556312         0.547505         0.727068
 H        -1.704088         1.622689        -0.320316
 H        -2.216316         0.091728         0.412088
 H        -0.784676         3.090889         0.710900
 H         0.216222         3.008830         2.324297
 H        -1.654200         2.525440         4.156732
 H        -2.953625         1.290690         4.603071
 H        -2.365439        -0.163938         2.604637
 H         0.540823         0.137669         3.068109
 H        -0.240344        -0.895812         1.990803
