19
Iteration:  1244
 O         0.664272         0.727580        -0.007373
 C        -0.164825         1.019913         1.039612
 C        -1.699650         0.909609         0.534726
 C        -1.933709         1.703010         1.774716
 C        -0.665317         2.411326         1.633467
 O        -2.956045         2.205825         2.628603
 C        -2.300455         1.628445         3.814718
 C        -1.577417         0.660480         2.934773
 C        -0.135104         0.273120         2.535610
 H         1.486581         0.504009         0.470222
 H        -1.949262         1.247892        -0.483842
 H        -2.055852        -0.109231         0.740598
 H        -0.685796         3.363496         0.950524
 H        -0.258519         2.851942         2.550271
 H        -1.613070         2.265945         4.278842
 H        -3.096424         1.267782         4.515258
 H        -2.288905        -0.206346         2.877002
 H         0.721314         0.658850         3.121590
 H         0.058926        -0.828673         2.615291
