19
Iteration:  4345charge 0 multiplicity 1
 O         0.881487         0.853351         0.174723
 C        -0.305895         0.907592         1.027336
 C        -1.772233         0.873416         0.524776
 C        -1.921175         1.640381         1.894184
 C        -0.624691         2.375915         1.557240
 O        -2.987990         2.212699         2.647968
 C        -2.303350         1.728004         3.809832
 C        -1.583556         0.573727         2.899179
 C        -0.132213         0.248497         2.458512
 H         0.579200         1.145979        -0.654982
 H        -1.885341         1.398623        -0.476861
 H        -2.373191         0.028697         0.423568
 H        -0.786421         3.036928         0.718299
 H         0.151080         2.744372         2.214704
 H        -1.485250         2.430074         4.217619
 H        -3.150578         1.538119         4.669308
 H        -2.238127        -0.301125         2.814507
 H         0.566213         0.813610         3.063704
 H        -0.013783        -0.846382         2.598682
