19
Iteration:   376
 O         0.810902         0.787177         0.202558
 C        -0.178570         1.018587         1.143552
 C        -1.741523         1.082716         0.478467
 C        -1.949914         1.606499         1.809424
 C        -0.558180         2.369997         1.737736
 O        -2.967204         2.305092         2.549141
 C        -2.296508         1.654840         3.849608
 C        -1.637480         0.605273         2.882997
 C        -0.233007         0.092557         2.314416
 H         0.886172        -0.234233         0.230601
 H        -1.650713         1.859271        -0.292247
 H        -2.186732         0.158626         0.119287
 H        -0.354571         3.174844         0.947030
 H        -0.122558         2.680822         2.686782
 H        -1.587720         2.373127         4.203101
 H        -3.096631         1.548862         4.577377
 H        -2.416522        -0.151298         2.734846
 H         0.587823         0.128293         3.014502
 H        -0.475425        -0.953875         1.956229
