19
Iteration:  2238
 O         0.786904         0.895911        -0.004015
 C        -0.267233         0.980944         0.981691
 C        -1.755929         0.885085         0.467000
 C        -1.995346         1.650251         1.869148
 C        -0.592984         2.414195         1.635364
 O        -2.964400         2.256438         2.652570
 C        -2.267912         1.592818         3.881978
 C        -1.641736         0.564984         2.945939
 C        -0.173412         0.239283         2.512220
 H         1.648412         0.562034         0.395650
 H        -1.799985         1.434964        -0.512787
 H        -2.141728        -0.239193         0.481839
 H        -0.684040         3.229809         0.934431
 H         0.069984         2.580538         2.432307
 H        -1.538083         2.446876         4.215499
 H        -2.924097         1.130176         4.681482
 H        -2.340702        -0.284460         2.723979
 H         0.655379         0.773616         3.110610
 H         0.158510        -0.777315         2.432546
