19
Iteration:  3242
 O         0.870590         0.833870         0.233752
 C        -0.267190         0.990445         1.098930
 C        -1.794538         0.871895         0.549411
 C        -1.973784         1.635630         1.837015
 C        -0.732605         2.403195         1.568697
 O        -2.902523         2.266180         2.608165
 C        -2.228125         1.682002         3.804984
 C        -1.546477         0.631645         2.903786
 C        -0.185069         0.133327         2.373397
 H         0.718064         1.516362        -0.436754
 H        -1.876782         1.385194        -0.395681
 H        -2.097427        -0.157152         0.568302
 H        -1.023034         2.931552         0.613837
 H        -0.338112         3.060641         2.332769
 H        -1.685626         2.512574         4.257471
 H        -2.904508         1.252428         4.521056
 H        -2.159464        -0.301249         2.922149
 H         0.736884         0.228923         3.067719
 H        -0.180891        -0.987282         2.247642
