19
Iteration:  4043
 O         0.910824         0.750107         0.287815
 C        -0.229953         0.997480         1.040250
 C        -1.820310         0.820135         0.572077
 C        -1.973311         1.673329         1.812592
 C        -0.637210         2.391626         1.505103
 O        -2.990483         2.199031         2.690688
 C        -2.261819         1.697230         3.830149
 C        -1.545484         0.656177         2.851108
 C        -0.236553         0.248874         2.338794
 H         0.889192         1.470044        -0.310992
 H        -2.054604         1.347917        -0.361337
 H        -2.231579        -0.150904         0.530878
 H        -0.745947         3.165900         0.792968
 H        -0.099874         2.687506         2.337389
 H        -1.519227         2.537084         4.197689
 H        -2.886689         1.192897         4.582037
 H        -2.256664        -0.149552         2.932765
 H         0.478828         0.881825         2.907097
 H         0.097402        -0.774341         2.140103
