19
Iteration:  3565
 O         0.878715         0.833140         0.232609
 C        -0.228995         0.993754         1.061447
 C        -1.785163         0.807286         0.568254
 C        -2.004616         1.610715         1.838372
 C        -0.677455         2.400813         1.550890
 O        -2.954555         2.279474         2.629972
 C        -2.181130         1.632309         3.844494
 C        -1.669462         0.619606         2.868666
 C        -0.202411         0.250561         2.397903
 H         0.918264         1.447936        -0.498301
 H        -1.723684         1.437884        -0.352928
 H        -2.171256        -0.181097         0.452476
 H        -0.873798         2.938648         0.599069
 H        -0.075281         2.999617         2.201468
 H        -1.395890         2.251195         4.226557
 H        -2.812749         1.487315         4.719736
 H        -2.283979        -0.271639         2.703057
 H         0.731770         0.488963         2.995491
 H        -0.171789        -0.961927         2.397683
