19
Iteration:  2373charge 0 multiplicity 1
 O         0.937128         0.862287         0.048773
 C        -0.198582         0.975461         0.952440
 C        -1.647467         0.871670         0.388392
 C        -1.991305         1.732195         1.870060
 C        -0.579184         2.350951         1.548263
 O        -3.084784         2.258586         2.824904
 C        -2.359411         1.586738         4.009061
 C        -1.599315         0.675278         2.891653
 C        -0.249296         0.237916         2.393954
 H         1.115893        -0.109921        -0.001779
 H        -1.745034         1.641878        -0.465420
 H        -2.245231        -0.032899         0.302162
 H        -0.686689         3.016040         0.714653
 H         0.083458         2.688100         2.307034
 H        -1.651954         2.324554         4.453222
 H        -3.143943         1.156218         4.692539
 H        -2.280783        -0.173569         2.716837
 H         0.532960         0.551798         3.034501
 H        -0.182722        -0.928713         2.422467
