19
Iteration:   244
 O         0.783022         0.668064         0.244104
 C        -0.200112         1.023354         1.157433
 C        -1.684375         1.070305         0.501372
 C        -1.927412         1.732687         1.800332
 C        -0.422632         2.411453         1.759526
 O        -2.984736         2.264065         2.604833
 C        -2.298237         1.619713         3.778805
 C        -1.669192         0.585294         2.758935
 C        -0.341967         0.119842         2.390828
 H         1.052597         1.421858        -0.376301
 H        -1.831850         1.549922        -0.473130
 H        -2.179969         0.119001         0.340919
 H        -0.530838         3.204819         1.005320
 H         0.293367         2.755226         2.527509
 H        -1.788982         2.460063         4.212650
 H        -3.060787         1.166303         4.455071
 H        -2.399209        -0.265227         2.710106
 H         0.467022         0.091861         3.060323
 H        -0.328135        -0.952491         1.993418
