19
Iteration:   796charge 0 multiplicity 1
 O         0.882130         0.698619         0.144298
 C        -0.206170         0.955588         1.062700
 C        -1.797296         1.008842         0.518035
 C        -1.944998         1.733858         1.811689
 C        -0.530934         2.443668         1.551589
 O        -2.979459         2.235165         2.720899
 C        -2.299175         1.594355         3.859686
 C        -1.635591         0.685503         2.825025
 C        -0.284068         0.139686         2.418528
 H         1.596990         1.183416         0.500674
 H        -1.783115         1.502019        -0.510095
 H        -2.411792         0.054550         0.439146
 H        -0.528869         3.288091         0.701588
 H        -0.090959         2.777788         2.435745
 H        -1.737635         2.353269         4.332042
 H        -2.872070         1.012160         4.574935
 H        -2.335153        -0.147513         2.518768
 H         0.598769         0.436064         3.021130
 H        -0.561179        -0.921088         2.375189
