19
Iteration:  4130charge 0 multiplicity 1
 O         0.805039         0.729536         0.163975
 C        -0.239133         1.041805         1.059090
 C        -1.767487         0.838175         0.476871
 C        -1.915533         1.659584         1.839886
 C        -0.601930         2.417033         1.530705
 O        -2.992069         2.250024         2.619276
 C        -2.383896         1.683771         3.897214
 C        -1.541525         0.633692         2.973863
 C        -0.085160         0.207036         2.427617
 H         0.711618         1.308289        -0.643704
 H        -1.937941         1.395504        -0.477052
 H        -2.191960        -0.137779         0.606350
 H        -0.949197         3.052628         0.720217
 H        -0.045456         2.847466         2.472999
 H        -1.924480         2.541533         4.477714
 H        -3.150002         1.221748         4.360358
 H        -2.057703        -0.313578         3.022048
 H         0.728392         0.679383         3.006289
 H         0.166466        -0.824947         2.262003
