19
Iteration:  2790
 O         0.810282         0.796961         0.116775
 C        -0.266407         1.041282         0.975560
 C        -1.685929         0.812656         0.522133
 C        -1.905462         1.564661         1.857983
 C        -0.634055         2.408368         1.471517
 O        -2.889389         2.253298         2.729051
 C        -2.355122         1.672607         3.874612
 C        -1.671204         0.613198         3.016468
 C        -0.200340         0.254501         2.447597
 H         0.879522         1.590197        -0.381013
 H        -2.054441         1.345800        -0.393085
 H        -1.837678        -0.348968         0.354698
 H        -0.826462         2.939037         0.545403
 H         0.032605         3.004033         2.067900
 H        -1.644250         2.351954         4.300281
 H        -3.096638         1.267838         4.498432
 H        -2.299665        -0.254790         2.878589
 H         0.542853         0.875599         2.988196
 H         0.131623        -0.766360         2.423749
