19
Iteration:  4116
 O         0.867000         0.788089         0.146497
 C        -0.226811         0.947158         1.042095
 C        -1.802907         0.842074         0.692251
 C        -1.950176         1.633249         1.877771
 C        -0.604192         2.376094         1.573303
 O        -3.017641         2.226511         2.595485
 C        -2.328228         1.688107         3.785420
 C        -1.554304         0.644335         2.906741
 C        -0.117832         0.291754         2.395860
 H         0.607018         1.184977        -0.670068
 H        -1.983052         1.380458        -0.346306
 H        -2.322931        -0.096284         0.531406
 H        -0.561126         3.204804         0.833383
 H         0.148382         2.901099         2.426471
 H        -1.719017         2.464692         4.284306
 H        -3.054491         1.211020         4.457540
 H        -2.306297        -0.208841         2.822837
 H         0.678889         0.707832         2.957574
 H        -0.121988        -0.840700         2.352532
