19
Iteration:  3815
 O         0.879026         0.690418         0.192399
 C        -0.181290         1.027917         1.006126
 C        -1.781969         0.935580         0.520417
 C        -1.904761         1.663281         1.831018
 C        -0.648351         2.403075         1.516027
 O        -3.012384         2.239410         2.683007
 C        -2.246229         1.572344         3.829585
 C        -1.637422         0.610547         2.888131
 C        -0.173575         0.299666         2.513176
 H         0.755403         1.056754        -0.657655
 H        -1.995349         1.576073        -0.393400
 H        -2.187657        -0.058157         0.306649
 H        -1.013719         2.966209         0.544201
 H        -0.135544         3.100377         2.193005
 H        -1.614256         2.361401         4.242715
 H        -3.001955         1.311638         4.687677
 H        -2.269902        -0.264240         2.874123
 H         0.453765         0.886836         3.205077
 H        -0.029063        -0.750392         2.542760
