19
Iteration:  1249
 O         0.693142         0.725367        -0.009015
 C        -0.220382         0.970652         1.080888
 C        -1.705387         0.919211         0.570347
 C        -1.941847         1.696855         1.767208
 C        -0.623814         2.449341         1.618190
 O        -2.989664         2.188897         2.672220
 C        -2.296434         1.614801         3.783822
 C        -1.598930         0.671513         2.883779
 C        -0.138917         0.312367         2.534893
 H         1.536122         0.518436         0.490513
 H        -1.940809         1.275426        -0.429365
 H        -2.009589        -0.123760         0.730549
 H        -0.575577         3.150692         0.869281
 H        -0.089340         2.751855         2.554107
 H        -1.501632         2.377964         4.188512
 H        -2.918733         1.217200         4.576022
 H        -2.246827        -0.162310         2.679722
 H         0.691821         0.719847         3.119495
 H         0.035620        -0.749480         2.530194
