19
Iteration:  1119charge 0 multiplicity 1
 O         0.826059         0.861971         0.171380
 C        -0.228455         0.944574         1.065527
 C        -1.817750         0.858163         0.583031
 C        -1.939038         1.717990         1.831485
 C        -0.518697         2.439193         1.559833
 O        -3.026611         2.260833         2.668490
 C        -2.332558         1.663635         3.841220
 C        -1.600329         0.639976         2.854207
 C        -0.112739         0.133606         2.389668
 H         0.894967         0.162611        -0.537723
 H        -1.965261         1.377604        -0.347182
 H        -2.347759        -0.074617         0.503367
 H        -0.519736         3.136026         0.819296
 H         0.075186         2.698691         2.476253
 H        -1.655597         2.317141         4.350883
 H        -3.050076         1.368285         4.563282
 H        -2.233199        -0.210670         2.849337
 H         0.713161         0.630623         2.814130
 H        -0.169742        -0.908746         2.373395
