19
Iteration:  4288charge 0 multiplicity 1
 O         0.895193         0.623613         0.240743
 C        -0.231148         1.020343         0.975475
 C        -1.747912         0.898659         0.463432
 C        -1.948423         1.595772         1.841965
 C        -0.672045         2.469401         1.461677
 O        -3.032405         2.286644         2.685559
 C        -2.250767         1.570895         3.947703
 C        -1.592134         0.630211         2.917782
 C        -0.194885         0.367031         2.395499
 H         1.072384         1.312731        -0.489095
 H        -2.111349         1.641672        -0.299994
 H        -2.130647        -0.121710         0.384714
 H        -0.773052         3.259307         0.595824
 H        -0.134578         2.760942         2.325199
 H        -1.529350         2.316332         4.441406
 H        -3.125010         1.041669         4.660418
 H        -2.208323        -0.296018         2.765810
 H         0.582828         0.857699         3.044611
 H         0.139252        -0.750937         2.511279
