19
Iteration:  3050charge 0 multiplicity 1
 O         0.819073         0.794681         0.247501
 C        -0.215116         1.004222         1.092219
 C        -1.816888         0.900058         0.510324
 C        -1.952692         1.591062         1.843428
 C        -0.641273         2.410883         1.482883
 O        -3.004570         2.187087         2.670680
 C        -2.222791         1.698515         3.785200
 C        -1.533909         0.590105         2.889595
 C        -0.172859         0.212534         2.430854
 H         0.828900         1.607200        -0.358603
 H        -1.950121         1.535198        -0.451880
 H        -2.281419        -0.045990         0.425573
 H        -0.878976         3.151726         0.684288
 H        -0.108626         2.958189         2.338007
 H        -1.417528         2.282036         4.111725
 H        -2.924121         1.419638         4.604617
 H        -2.371499        -0.116438         2.816996
 H         0.569168         0.673778         3.146892
 H         0.108265        -0.851714         2.382405
