19
Iteration:   518charge 0 multiplicity 1
 O         0.807720         0.737026         0.182068
 C        -0.192976         0.998382         1.109615
 C        -1.774744         0.969742         0.448083
 C        -1.981671         1.548580         1.842367
 C        -0.524854         2.405728         1.690984
 O        -2.921778         2.368742         2.625379
 C        -2.344153         1.770403         3.779027
 C        -1.668572         0.532112         2.904330
 C        -0.221669         0.068563         2.388377
 H         1.375727         1.607672         0.228045
 H        -2.034192         1.635083        -0.349989
 H        -1.958011        -0.052447         0.149084
 H        -0.653231         3.177461         0.938550
 H         0.046779         2.828872         2.415433
 H        -1.561817         2.401624         4.206130
 H        -3.008927         1.430774         4.562452
 H        -2.384704        -0.266311         2.713106
 H         0.643323         0.242235         3.063036
 H        -0.200379        -1.002787         2.003279
