19
Iteration:  4663charge 0 multiplicity 1
 O         0.906414         0.772550         0.205772
 C        -0.286979         1.029089         1.017484
 C        -1.812826         0.836411         0.515738
 C        -1.951896         1.627552         1.869141
 C        -0.675575         2.398206         1.528651
 O        -2.967325         2.294777         2.644476
 C        -2.309304         1.616916         3.851848
 C        -1.521798         0.598105         2.931736
 C        -0.155350         0.283593         2.410414
 H         0.729543         1.054726        -0.674855
 H        -1.945823         1.642632        -0.327803
 H        -2.302296        -0.152690         0.464095
 H        -0.820867         3.144028         0.745363
 H         0.015805         2.907327         2.301014
 H        -1.783678         2.326246         4.350247
 H        -3.068101         1.006375         4.423414
 H        -2.115897        -0.328553         3.011320
 H         0.718892         0.653710         3.080407
 H         0.053977        -0.789699         2.326630
