19
Iteration:  2227charge 0 multiplicity 1
 O         0.816044         0.848503        -0.066816
 C        -0.212120         1.044848         0.988211
 C        -1.763938         0.885334         0.527256
 C        -1.933398         1.675191         1.799696
 C        -0.622814         2.321716         1.681473
 O        -3.009003         2.205141         2.751717
 C        -2.339048         1.649139         3.837991
 C        -1.619786         0.612096         2.866170
 C        -0.111399         0.278319         2.496901
 H         1.486945         0.362124         0.400444
 H        -1.828596         1.338434        -0.506660
 H        -2.319071        -0.173683         0.434505
 H        -0.576767         3.254015         1.150954
 H        -0.333628         2.576701         2.642137
 H        -1.488462         2.269103         4.411238
 H        -3.125802         1.448723         4.636405
 H        -2.313061        -0.269796         2.785034
 H         0.753964         0.744265         3.103921
 H        -0.003279        -0.783407         2.400315
