19
Iteration:  4202
 O         0.889560         0.783122         0.289388
 C        -0.244151         0.959804         1.028910
 C        -1.781946         0.920984         0.509218
 C        -1.968766         1.604693         1.862825
 C        -0.742429         2.369571         1.513575
 O        -3.006807         2.238761         2.626612
 C        -2.176683         1.723133         3.879590
 C        -1.571822         0.644499         2.930246
 C        -0.175710         0.218993         2.371304
 H         0.917463         1.231463        -0.531248
 H        -1.803180         1.385578        -0.556810
 H        -2.308838        -0.015202         0.350895
 H        -0.905226         2.979842         0.656568
 H        -0.095294         2.893103         2.205303
 H        -1.517773         2.531625         4.162896
 H        -2.853704         1.059728         4.528615
 H        -2.287679        -0.233404         2.947371
 H         0.637196         0.655923         2.970488
 H        -0.029427        -0.920507         2.271710
