19
Iteration:  1085charge 0 multiplicity 1
 O         0.721593         0.814781        -0.012286
 C        -0.162811         0.986405         1.035615
 C        -1.715841         0.937380         0.522223
 C        -1.935655         1.601542         1.806100
 C        -0.565212         2.465917         1.611843
 O        -2.955896         2.283047         2.625611
 C        -2.329311         1.628846         3.902871
 C        -1.642512         0.600899         2.909523
 C        -0.207291         0.192412         2.567186
 H         1.333896         0.081865         0.070445
 H        -1.654311         1.638570        -0.296047
 H        -2.196695        -0.009490         0.314983
 H        -0.715522         3.177854         0.882250
 H        -0.006203         2.954101         2.417180
 H        -1.616083         2.260957         4.400389
 H        -3.111909         1.252396         4.481486
 H        -2.221632        -0.270434         2.764992
 H         0.649880         0.462222         3.132839
 H        -0.075667        -0.848469         2.547233
