19
Iteration:  2548
 O         0.839782         0.799863         0.124296
 C        -0.252844         0.997569         1.037800
 C        -1.794479         0.804473         0.647372
 C        -1.987559         1.711816         1.840805
 C        -0.631325         2.459193         1.572577
 O        -3.021554         2.276082         2.693472
 C        -2.296094         1.624485         3.799839
 C        -1.547549         0.652489         2.865452
 C        -0.090980         0.183317         2.308275
 H         1.511809         0.577284         0.858350
 H        -2.231148         1.272713        -0.353969
 H        -2.231264        -0.220278         0.808687
 H        -0.652217         3.259207         0.809907
 H        -0.003602         2.855397         2.330473
 H        -1.633281         2.485405         4.165486
 H        -2.978684         1.242120         4.614099
 H        -2.329969        -0.154411         2.746753
 H         0.817924         0.373901         2.850237
 H        -0.214833        -0.882014         2.015639
