19
Iteration:   702
 O         0.790279         0.661665         0.180228
 C        -0.174814         1.050979         1.075479
 C        -1.668153         0.998525         0.480913
 C        -1.846104         1.645718         1.858143
 C        -0.697076         2.584297         1.598961
 O        -2.967243         2.202528         2.672170
 C        -2.278170         1.682336         3.832263
 C        -1.643202         0.621457         2.848156
 C        -0.312529         0.089218         2.356645
 H         1.711087         0.571377         0.604288
 H        -1.754711         1.470988        -0.476273
 H        -1.987891        -0.014941         0.402295
 H        -0.839897         3.290067         0.818190
 H        -0.148736         3.092409         2.588548
 H        -1.516254         2.408551         4.273901
 H        -2.902407         1.297568         4.663903
 H        -2.460436        -0.081694         2.798231
 H         0.520823         0.211969         2.982912
 H        -0.414165        -0.925940         1.896879
