19
Iteration:  2102
 O         0.854497         0.959512         0.074214
 C        -0.205854         1.002984         1.020444
 C        -1.786536         0.868859         0.573499
 C        -1.917982         1.715466         1.859858
 C        -0.585558         2.405008         1.625443
 O        -3.083668         2.150325         2.702599
 C        -2.281514         1.692295         3.809649
 C        -1.567824         0.633588         2.903901
 C        -0.184799         0.122843         2.376899
 H         0.987498         0.043008        -0.095320
 H        -1.795535         1.417811        -0.384963
 H        -2.225945        -0.133911         0.506845
 H        -0.635072         3.162697         0.854021
 H         0.098776         2.635721         2.481483
 H        -1.613009         2.484442         4.338856
 H        -2.952717         1.257419         4.565700
 H        -2.312151        -0.174986         2.812029
 H         0.628299         0.461648         2.953510
 H        -0.216259        -0.974286         2.300924
