19
Iteration:   451
 O         0.892685         0.591628         0.307752
 C        -0.284169         1.049286         1.015814
 C        -1.689449         0.996652         0.477304
 C        -1.895731         1.734394         1.911636
 C        -0.613616         2.470351         1.598307
 O        -2.858619         2.352791         2.613815
 C        -2.360929         1.486512         3.863662
 C        -1.690987         0.612774         2.821003
 C        -0.255936         0.177836         2.358275
 H         0.719145         1.076480        -0.470000
 H        -1.850989         1.698375        -0.336213
 H        -2.027531         0.033378         0.157833
 H        -0.903057         3.237819         0.945498
 H        -0.129864         3.049194         2.399601
 H        -1.756097         2.199666         4.425136
 H        -3.206739         1.143690         4.486764
 H        -2.402979        -0.207735         2.707978
 H         0.616825         0.518697         2.915690
 H        -0.166155        -0.978099         2.276971
