19
Iteration:   639charge 0 multiplicity 1
 O         0.842695         0.750116         0.097858
 C        -0.220804         0.957134         1.100841
 C        -1.763199         1.001466         0.582647
 C        -1.825902         1.728973         1.846760
 C        -0.589452         2.395090         1.550506
 O        -2.969271         2.329351         2.589067
 C        -2.337541         1.573820         3.819927
 C        -1.672325         0.635597         2.880099
 C        -0.261566         0.081069         2.485999
 H         1.594020         1.355622         0.349854
 H        -1.734777         1.509896        -0.365228
 H        -2.281171         0.064965         0.595789
 H        -0.775265         3.178351         0.787238
 H         0.102745         2.741416         2.298397
 H        -1.679903         2.266495         4.291319
 H        -3.073694         1.139767         4.455191
 H        -2.371499        -0.147393         2.617736
 H         0.520604         0.345404         3.240496
 H        -0.288842        -0.983860         2.332200
