19
Iteration:   936
 O         0.838679         0.609646         0.249872
 C        -0.245011         1.037485         1.054962
 C        -1.645126         0.929245         0.453460
 C        -1.942777         1.796817         1.821244
 C        -0.577878         2.573890         1.572528
 O        -3.005279         2.227008         2.732283
 C        -2.208621         1.509194         3.913350
 C        -1.674797         0.633233         2.830452
 C        -0.287551         0.206999         2.348096
 H         0.650072         0.862685        -0.622187
 H        -1.695068         1.537437        -0.451013
 H        -2.226978         0.030255         0.264116
 H        -0.314271         3.209904         0.757808
 H        -0.049850         2.699243         2.419986
 H        -1.471728         2.187954         4.535321
 H        -3.090990         1.169496         4.546686
 H        -2.454932        -0.067072         2.472859
 H         0.386072         0.804581         2.987049
 H        -0.145649        -0.847773         2.255462
