19
Iteration:  2003charge 0 multiplicity 1
 O         0.940855         0.990891         0.145804
 C        -0.257777         1.002305         1.028699
 C        -1.838102         0.849605         0.504460
 C        -1.952536         1.562474         1.858780
 C        -0.691137         2.361617         1.535913
 O        -2.934735         2.305637         2.641797
 C        -2.334844         1.639232         3.866940
 C        -1.546083         0.590136         2.987646
 C        -0.137194         0.136324         2.404922
 H         0.849745         0.157712        -0.345969
 H        -2.052203         1.679188        -0.193966
 H        -2.586871        -0.006139         0.369362
 H        -0.805075         3.179504         0.824449
 H        -0.100588         2.729292         2.412088
 H        -1.551425         2.402291         4.256975
 H        -3.193258         1.307655         4.531389
 H        -2.278343        -0.264514         2.800402
 H         0.559559         0.554180         3.098384
 H         0.099657        -0.955921         2.198173
