19
Iteration:  3601charge 0 multiplicity 1
 O         0.923454         0.734647         0.245330
 C        -0.278337         0.988971         1.041389
 C        -1.799142         0.863913         0.524381
 C        -1.996556         1.644859         1.849659
 C        -0.640181         2.385938         1.539573
 O        -3.017622         2.223256         2.656068
 C        -2.249823         1.668062         3.905636
 C        -1.568002         0.679987         2.861124
 C        -0.138473         0.259324         2.365752
 H         0.897742         1.376360        -0.446967
 H        -1.879931         1.412138        -0.345117
 H        -2.312098        -0.087109         0.231797
 H        -0.858846         3.032217         0.688369
 H        -0.201366         2.856111         2.442633
 H        -1.543197         2.427145         4.192885
 H        -2.895184         1.388254         4.642222
 H        -2.240926        -0.171999         2.891427
 H         0.751888         0.659482         2.814527
 H        -0.223563        -0.897258         2.222965
