19
Iteration:  3754
 O         0.868825         0.760352         0.179495
 C        -0.212847         1.055550         0.985545
 C        -1.778387         0.832559         0.506451
 C        -1.971085         1.610057         1.807473
 C        -0.620392         2.424850         1.530664
 O        -3.008879         2.209422         2.635132
 C        -2.290360         1.735515         3.893463
 C        -1.603191         0.595666         3.021408
 C        -0.190050         0.199368         2.423193
 H         1.064976         1.509597        -0.407306
 H        -1.842846         1.599924        -0.179274
 H        -2.210566        -0.207727         0.304735
 H        -0.684290         3.082138         0.712250
 H        -0.222792         2.935278         2.361970
 H        -1.593514         2.553886         4.163980
 H        -2.967715         1.631582         4.662881
 H        -2.291474        -0.270440         2.934939
 H         0.739948         0.381895         2.985313
 H         0.181093        -0.962509         2.211176
