19
Iteration:  1787
 O         0.861943         0.991709         0.183614
 C        -0.235312         1.049933         1.070397
 C        -1.805795         0.817242         0.578708
 C        -2.032577         1.643748         1.794903
 C        -0.703755         2.440496         1.439901
 O        -2.836121         2.306103         2.666115
 C        -2.231791         1.516549         3.885103
 C        -1.624755         0.573202         2.795736
 C        -0.203352         0.163360         2.485926
 H         1.028445         0.003796         0.153529
 H        -1.791795         1.416313        -0.334350
 H        -2.378445        -0.160747         0.571426
 H        -0.817031         3.200276         0.586633
 H        -0.062242         2.814457         2.291896
 H        -1.473412         2.230151         4.393813
 H        -3.011982         1.259829         4.592152
 H        -2.408097        -0.197372         2.794207
 H         0.681383         0.406035         3.121619
 H        -0.189057        -0.958651         2.422979
