19
Iteration:  4728charge 0 multiplicity 1
 O         0.844322         0.750256         0.236750
 C        -0.248798         0.971363         1.042730
 C        -1.819856         0.882115         0.520069
 C        -1.937748         1.664199         1.876794
 C        -0.644933         2.468226         1.493518
 O        -3.060249         2.102441         2.701537
 C        -2.265408         1.747673         3.799899
 C        -1.524104         0.615609         2.913667
 C        -0.154433         0.195243         2.354938
 H         1.224848         1.674002        -0.015808
 H        -1.852123         1.693571        -0.291341
 H        -2.302284        -0.083704         0.595407
 H        -0.542173         3.036830         0.571429
 H        -0.075814         2.904667         2.198421
 H        -1.621947         2.714028         4.058121
 H        -2.794308         1.448327         4.775276
 H        -2.303637        -0.168582         2.704752
 H         0.714097         0.685006         2.960994
 H         0.084090        -0.874830         2.215524
