19
Iteration:  2172
 O         0.958582         0.857277         0.169915
 C        -0.244072         1.031909         1.038256
 C        -1.916191         0.963589         0.542235
 C        -1.998406         1.667826         1.855446
 C        -0.591707         2.429437         1.495797
 O        -3.034940         2.210373         2.738904
 C        -2.199757         1.569404         3.853603
 C        -1.615833         0.590837         2.852395
 C        -0.151515         0.210720         2.380623
 H         1.126836        -0.079981         0.160451
 H        -1.882914         1.523702        -0.444368
 H        -2.341532        -0.134344         0.419981
 H        -0.866569         3.114679         0.685168
 H        -0.147313         2.956582         2.295972
 H        -1.649128         2.422489         4.391958
 H        -2.861659         1.041861         4.598833
 H        -2.327751        -0.256525         2.777132
 H         0.608691         0.799554         3.016566
 H         0.112806        -0.809024         2.139364
