19
Iteration:  4237charge 0 multiplicity 1
 O         0.833659         0.815123         0.125852
 C        -0.222852         1.038288         1.067659
 C        -1.707977         0.787578         0.574688
 C        -1.934566         1.592848         1.830698
 C        -0.631498         2.383374         1.620598
 O        -3.029761         2.221657         2.613492
 C        -2.219284         1.750622         3.841699
 C        -1.624924         0.668541         2.922689
 C        -0.229750         0.208246         2.383756
 H         0.745694         1.377006        -0.636756
 H        -1.684043         1.239176        -0.483313
 H        -1.954872        -0.219684         0.675082
 H        -0.753937         3.109790         0.864415
 H         0.057880         2.756589         2.457191
 H        -1.738670         2.575844         4.285113
 H        -2.778655         1.343010         4.652133
 H        -2.273513        -0.216126         3.025218
 H         0.592726         0.391247         3.012900
 H        -0.287653        -0.880032         2.216770
