19
Iteration:  2340
 O         0.799962         0.832219         0.142959
 C        -0.188547         1.044755         1.089321
 C        -1.740551         0.894935         0.578859
 C        -1.944254         1.676956         1.861406
 C        -0.623113         2.423174         1.636503
 O        -2.940384         2.239249         2.634805
 C        -2.319725         1.581534         3.830909
 C        -1.570433         0.606685         2.837638
 C        -0.190789         0.219775         2.392010
 H         0.364375         0.544400        -0.638558
 H        -1.855587         1.445898        -0.407173
 H        -2.368601         0.012403         0.520748
 H        -0.631761         3.135733         0.834115
 H         0.002297         2.795951         2.432123
 H        -1.612144         2.289849         4.307209
 H        -3.080528         1.274378         4.599063
 H        -2.115243        -0.338501         2.757799
 H         0.577451         0.460514         3.077859
 H        -0.160950        -0.912683         2.156129
