19
Iteration:  3514
 O         0.847753         0.691199         0.225956
 C        -0.278706         1.006057         1.008481
 C        -1.798184         0.934115         0.605424
 C        -1.931984         1.691595         1.875230
 C        -0.567138         2.493264         1.545733
 O        -3.045870         2.154865         2.616152
 C        -2.277929         1.701619         3.817290
 C        -1.557171         0.565694         2.859183
 C        -0.098841         0.205639         2.408647
 H         0.804566         1.263676        -0.498077
 H        -1.873085         1.497166        -0.295782
 H        -2.378700        -0.122540         0.538303
 H        -0.907947         3.272568         0.771055
 H        -0.167223         2.987045         2.469444
 H        -1.791105         2.590122         4.400685
 H        -2.955822         1.343226         4.580496
 H        -2.281416        -0.291151         2.778518
 H         0.684423         0.742654         2.843997
 H         0.097596        -0.786334         2.300280
