19
Iteration:  4718
 O         0.833790         0.825548         0.208874
 C        -0.210513         0.994316         1.102263
 C        -1.800725         0.889260         0.587310
 C        -1.946711         1.660591         1.812432
 C        -0.600164         2.416943         1.418744
 O        -3.063899         2.157502         2.682011
 C        -2.202895         1.662541         3.842720
 C        -1.611070         0.639799         2.884747
 C        -0.172041         0.198069         2.440314
 H         1.274923         1.631317        -0.185129
 H        -2.036747         1.279662        -0.443248
 H        -2.343594        -0.062256         0.421623
 H        -0.735522         2.935596         0.483392
 H        -0.076516         2.924313         2.169847
 H        -1.419944         2.374605         4.109359
 H        -2.876499         1.422888         4.753894
 H        -2.292751        -0.232093         2.889735
 H         0.705298         0.549091         3.114980
 H        -0.052438        -0.874997         2.175041
