19
Iteration:  4704
 O         0.869960         0.833164         0.148520
 C        -0.207102         0.990843         1.058089
 C        -1.776999         0.756694         0.514671
 C        -2.020799         1.644434         1.828240
 C        -0.672602         2.441845         1.496097
 O        -2.958221         2.274832         2.675225
 C        -2.175887         1.598190         3.843147
 C        -1.621732         0.614385         2.873903
 C        -0.234291         0.246727         2.507308
 H         0.918729         1.759262        -0.175449
 H        -1.703749         1.321574        -0.452912
 H        -2.077303        -0.235728         0.654214
 H        -0.953958         3.090425         0.612923
 H        -0.035094         2.935926         2.156463
 H        -1.495211         2.450487         4.429038
 H        -2.815590         1.174649         4.573743
 H        -2.349161        -0.231399         2.740489
 H         0.605540         0.536076         3.209504
 H        -0.229947        -0.829791         2.414881
