19
Iteration:  2939charge 0 multiplicity 1
 O         0.851663         0.737260         0.177934
 C        -0.238751         0.978648         0.990695
 C        -1.665988         0.847105         0.425792
 C        -2.030884         1.561210         1.854970
 C        -0.712112         2.436297         1.569160
 O        -3.029916         2.247330         2.726251
 C        -2.200542         1.709420         3.843132
 C        -1.568909         0.704159         2.920627
 C        -0.191433         0.249445         2.453165
 H         1.019879         1.422172        -0.467082
 H        -1.921368         1.510233        -0.415187
 H        -1.937635        -0.116224         0.094527
 H        -0.725759         3.134248         0.692938
 H        -0.241728         2.778347         2.507641
 H        -1.719613         2.502026         4.346153
 H        -2.716760         1.041524         4.572655
 H        -2.205235        -0.214227         2.846353
 H         0.647143         0.471165         3.085211
 H        -0.107236        -0.900693         2.384449
