19
Iteration:   685
 O         0.867900         0.683911         0.122597
 C        -0.218618         0.968685         1.051043
 C        -1.618177         0.904756         0.435118
 C        -2.068451         1.735862         1.785006
 C        -0.721082         2.463327         1.711293
 O        -2.969452         2.348333         2.688234
 C        -2.206634         1.650594         3.851468
 C        -1.631237         0.576092         2.876992
 C        -0.258983         0.141126         2.380067
 H         1.705730         0.884254         0.687728
 H        -1.628990         1.658816        -0.405386
 H        -2.181725        -0.046509         0.173867
 H        -0.666313         3.250164         0.840678
 H        -0.398938         2.881993         2.541531
 H        -1.535628         2.352732         4.298110
 H        -2.978629         1.295324         4.532027
 H        -2.398534        -0.243610         2.802301
 H         0.675750         0.312593         3.050687
 H        -0.353378        -0.927353         2.209389
