19
Iteration:  3149charge 0 multiplicity 1
 O         0.927371         0.726514         0.079096
 C        -0.168683         0.946877         1.001364
 C        -1.777958         0.868299         0.558294
 C        -1.932237         1.701679         1.859915
 C        -0.632936         2.461670         1.524327
 O        -3.074073         2.268199         2.688376
 C        -2.389374         1.572303         3.924673
 C        -1.576432         0.626578         2.919036
 C        -0.154602         0.305279         2.448713
 H         0.708043         1.170552        -0.785457
 H        -1.862136         1.421026        -0.464176
 H        -2.157139        -0.183256         0.534589
 H        -0.572263         3.184878         0.723537
 H        -0.091239         2.741148         2.461489
 H        -1.748215         2.338268         4.252474
 H        -2.907052         1.096688         4.768559
 H        -2.239581        -0.235488         2.777647
 H         0.695658         0.707001         2.871972
 H         0.046057        -0.730066         2.546748
