19
Iteration:  2028charge 0 multiplicity 1
 O         0.805213         0.942808         0.204970
 C        -0.302435         0.993770         1.022775
 C        -1.682052         0.824445         0.478370
 C        -2.000772         1.682029         1.784219
 C        -0.568543         2.388564         1.474594
 O        -2.954837         2.272623         2.798685
 C        -2.284925         1.539473         3.862575
 C        -1.596400         0.633091         2.836038
 C        -0.195678         0.274751         2.421635
 H         1.044048        -0.019181        -0.005334
 H        -1.895878         1.323087        -0.532212
 H        -2.237481        -0.164455         0.719257
 H        -0.723141         3.091339         0.686424
 H         0.108706         2.670430         2.226305
 H        -1.761905         2.353162         4.397857
 H        -2.921387         0.932823         4.446110
 H        -2.173365        -0.300749         2.857732
 H         0.620519         0.656502         3.171968
 H        -0.158489        -0.789303         2.213784
