19
Iteration:  1768charge 0 multiplicity 1
 O         0.851530         0.894806         0.207713
 C        -0.192901         0.974873         1.059017
 C        -1.882276         0.863012         0.447962
 C        -1.942225         1.660679         1.794887
 C        -0.685940         2.353533         1.543385
 O        -2.932410         2.322170         2.753647
 C        -2.300828         1.596289         3.813516
 C        -1.569277         0.576340         2.905440
 C        -0.134626         0.264766         2.378853
 H         1.147604         0.010435        -0.021783
 H        -2.071441         1.393029        -0.451795
 H        -2.254534        -0.110119         0.430439
 H        -0.817826         3.106432         0.752033
 H        -0.133754         2.928887         2.375629
 H        -1.622160         2.130906         4.584031
 H        -3.159036         1.111406         4.377013
 H        -2.147106        -0.329483         2.834064
 H         0.640451         0.743972         3.037479
 H         0.148957        -0.700630         2.187156
