19
Iteration:  4511
 O         0.811256         0.729043         0.253028
 C        -0.283339         0.980975         1.027314
 C        -1.781612         0.956116         0.489476
 C        -1.995416         1.561444         1.837552
 C        -0.629204         2.468567         1.617502
 O        -3.000317         2.138155         2.612994
 C        -2.190379         1.719148         3.770084
 C        -1.529002         0.586599         2.893521
 C        -0.154837         0.256667         2.433312
 H         0.766556         1.276414        -0.514963
 H        -2.037299         1.623421        -0.297615
 H        -2.181771         0.028767         0.214277
 H        -0.819542         3.258486         0.904654
 H         0.055773         2.848533         2.487914
 H        -1.679809         2.544131         4.232814
 H        -2.820781         1.504392         4.748830
 H        -2.213265        -0.213420         3.022098
 H         0.602274         0.885774         2.922161
 H         0.056899        -0.779685         2.399567
