19
Iteration:  3373charge 0 multiplicity 1
 O         0.814397         0.785369         0.218540
 C        -0.301407         1.006824         1.106097
 C        -1.730993         0.839490         0.551721
 C        -1.956676         1.629491         1.839059
 C        -0.645051         2.469047         1.519033
 O        -2.926643         2.199602         2.626402
 C        -2.261089         1.673911         3.829205
 C        -1.572797         0.586275         2.885293
 C        -0.180447         0.204493         2.427896
 H         0.741737         1.449275        -0.440875
 H        -1.833157         1.573191        -0.277869
 H        -2.480237        -0.064669         0.297943
 H        -0.856262         3.283496         0.789846
 H         0.167447         2.746487         2.191810
 H        -1.518559         2.399163         4.167615
 H        -2.933111         1.482498         4.643019
 H        -2.303437        -0.214042         2.736794
 H         0.617602         0.715859         2.949864
 H        -0.083330        -0.834145         2.329188
