19
Iteration:    98charge 0 multiplicity 1
 O         0.839456         0.697530         0.263343
 C        -0.239894         0.980703         1.094338
 C        -1.640862         1.083314         0.470775
 C        -1.881912         1.760448         1.808856
 C        -0.393903         2.366733         1.667200
 O        -2.946407         2.407634         2.623266
 C        -2.346402         1.472346         3.855962
 C        -1.776666         0.544342         2.777401
 C        -0.394865         0.113308         2.375393
 H         0.961643         1.498718        -0.200545
 H        -1.614706         1.732635        -0.384528
 H        -2.170338         0.145535         0.333104
 H        -0.458159         3.176307         0.851641
 H         0.301166         2.656528         2.502148
 H        -1.713477         2.122968         4.456009
 H        -3.107409         1.127652         4.555539
 H        -2.539940        -0.178436         2.512628
 H         0.381356         0.356251         3.171270
 H        -0.295193        -0.956268         2.220145
