19
Iteration:  4289charge 0 multiplicity 1
 O         0.897639         0.619929         0.241252
 C        -0.238798         1.024130         0.970765
 C        -1.737702         0.890958         0.469834
 C        -1.935740         1.600435         1.837033
 C        -0.679744         2.481222         1.456698
 O        -3.036215         2.292611         2.690198
 C        -2.253881         1.566244         3.950804
 C        -1.593126         0.625726         2.921409
 C        -0.193167         0.367305         2.390700
 H         1.068456         1.288176        -0.464545
 H        -2.117367         1.638661        -0.324167
 H        -2.113776        -0.097378         0.382070
 H        -0.763149         3.226758         0.630841
 H        -0.168270         2.732263         2.317918
 H        -1.525942         2.308899         4.423331
 H        -3.120178         1.033324         4.667988
 H        -2.217269        -0.292337         2.769228
 H         0.574667         0.851462         3.022853
 H         0.125209        -0.748567         2.507865
