19
Iteration:  1044
 O         0.843289         0.688284         0.220133
 C        -0.324026         1.061869         1.020150
 C        -1.796331         0.946925         0.502485
 C        -1.953060         1.690710         1.820961
 C        -0.545175         2.487523         1.470099
 O        -2.964929         2.227964         2.701537
 C        -2.203884         1.577067         3.858461
 C        -1.596892         0.642050         2.858126
 C        -0.263385         0.182541         2.372440
 H         1.498040         1.060774         0.855672
 H        -1.986859         1.577826        -0.343180
 H        -2.257847        -0.022654         0.401758
 H        -0.532747         3.269646         0.763296
 H        -0.159592         2.838512         2.554224
 H        -1.628490         2.308061         4.375597
 H        -2.894174         1.123845         4.592677
 H        -2.343219        -0.150889         2.794475
 H         0.584068         0.388686         3.081577
 H        -0.202746        -0.900629         2.138863
