19
Iteration:  3633charge 0 multiplicity 1
 O         0.800500         0.670115         0.162973
 C        -0.264162         1.063140         1.071127
 C        -1.731261         0.870725         0.482735
 C        -1.951168         1.654884         1.856411
 C        -0.572916         2.475302         1.568538
 O        -2.974077         2.158958         2.618018
 C        -2.316598         1.675277         3.913223
 C        -1.615111         0.632070         2.848826
 C        -0.126557         0.270612         2.479064
 H         0.723347         1.355065        -0.613054
 H        -1.827715         1.405739        -0.421299
 H        -2.192440        -0.165755         0.440525
 H        -0.930421         3.170308         0.811582
 H        -0.220036         2.968412         2.427055
 H        -1.634073         2.422159         4.217430
 H        -2.941853         1.561678         4.685796
 H        -2.215499        -0.263430         2.779004
 H         0.697298         0.703393         3.068476
 H         0.191274        -0.916080         2.272676
