19
Iteration:   143
 O         0.803797         0.682449         0.166739
 C        -0.253775         0.939159         1.036710
 C        -1.584292         1.134012         0.392002
 C        -1.936050         1.753223         1.898244
 C        -0.522726         2.422109         1.719349
 O        -2.985982         2.304532         2.623396
 C        -2.371175         1.591919         3.864144
 C        -1.701681         0.651346         2.840781
 C        -0.286808         0.065383         2.382389
 H         1.514100         0.322673         0.647406
 H        -1.324698         1.871044        -0.329933
 H        -2.203124         0.349731        -0.043015
 H        -0.381934         3.176473         0.998156
 H        -0.001009         2.729494         2.699074
 H        -1.734454         2.162105         4.511833
 H        -3.136564         1.123356         4.466884
 H        -2.328324        -0.202035         2.618654
 H         0.666256         0.233125         2.901779
 H        -0.345505        -1.019803         2.080617
