19
Iteration:  1526charge 0 multiplicity 1
 O         0.873219         0.882414         0.276766
 C        -0.281992         0.979782         0.996538
 C        -1.815855         0.891238         0.475768
 C        -1.991414         1.613786         1.806763
 C        -0.708984         2.372018         1.478185
 O        -2.889438         2.323347         2.711003
 C        -2.218539         1.611821         3.797792
 C        -1.616175         0.563819         2.954393
 C        -0.195234         0.266657         2.433240
 H         0.996107         0.016171        -0.145658
 H        -1.802112         1.387206        -0.497359
 H        -2.135198        -0.157435         0.427178
 H        -0.869763         3.213438         0.694672
 H        -0.104845         2.711317         2.351150
 H        -1.548780         2.303562         4.179935
 H        -2.942399         1.348870         4.582751
 H        -2.196381        -0.349669         2.790811
 H         0.728679         0.690442         2.911104
 H         0.010817        -0.815799         2.395023
