19
Iteration:  3862
 O         0.898783         0.699749         0.163366
 C        -0.224662         1.027187         1.032106
 C        -1.763142         0.894801         0.570669
 C        -2.000574         1.621354         1.845232
 C        -0.586320         2.473642         1.534131
 O        -3.059780         2.193668         2.617160
 C        -2.245282         1.654122         3.835094
 C        -1.576806         0.667231         2.931361
 C        -0.204263         0.233396         2.458332
 H         0.817699         1.450910        -0.532881
 H        -2.053428         1.407891        -0.316049
 H        -2.177169        -0.224739         0.480185
 H        -0.641055         3.248889         0.691231
 H         0.054771         2.860552         2.348263
 H        -1.661315         2.525015         4.381259
 H        -2.955918         1.252421         4.656422
 H        -2.288505        -0.172624         2.797587
 H         0.691066         0.533871         2.985413
 H        -0.058586        -0.824610         2.339059
