19
Iteration:   923charge 0 multiplicity 1
 O         0.832509         0.561225         0.290255
 C        -0.236613         1.057568         1.037261
 C        -1.711514         1.032101         0.440144
 C        -1.985294         1.724896         1.815372
 C        -0.599934         2.439970         1.613491
 O        -2.978347         2.317223         2.771675
 C        -2.269265         1.516658         3.820712
 C        -1.653092         0.594599         2.739847
 C        -0.199320         0.287132         2.394412
 H         0.760620         0.845661        -0.683475
 H        -1.773797         1.606305        -0.469219
 H        -2.041858         0.025601         0.378620
 H        -0.817874         3.166702         0.992240
 H        -0.043435         2.898136         2.436490
 H        -1.452075         2.191611         4.245524
 H        -2.880366         1.068089         4.629429
 H        -2.246205        -0.300321         2.660042
 H         0.618845         0.583118         3.081933
 H         0.006335        -0.757182         2.211280
