19
Iteration:  2830charge 0 multiplicity 1
 O         0.807245         0.699583         0.261074
 C        -0.200559         1.045462         1.082578
 C        -1.921894         0.839808         0.536026
 C        -1.975786         1.711733         1.842984
 C        -0.595739         2.460464         1.537803
 O        -3.013352         2.178087         2.672749
 C        -2.271651         1.619171         3.774569
 C        -1.473801         0.646526         2.846766
 C        -0.057300         0.280990         2.379999
 H         0.792145         1.034592        -0.698590
 H        -2.220539         1.405709        -0.334008
 H        -2.334851        -0.073999         0.746753
 H        -0.617346         3.317338         0.779220
 H        -0.136080         2.848740         2.484797
 H        -1.686612         2.441646         4.308801
 H        -3.078700         1.169125         4.595785
 H        -2.241362        -0.173534         2.689133
 H         0.722460         0.862383         2.893400
 H         0.001422        -0.910785         2.388934
