19
Iteration:  4245
 O         0.817868         0.817440         0.153699
 C        -0.277305         1.000104         1.065100
 C        -1.720344         0.803090         0.605227
 C        -1.993809         1.666824         1.825782
 C        -0.577368         2.404874         1.630369
 O        -3.027842         2.206621         2.546172
 C        -2.184506         1.699406         3.875239
 C        -1.580829         0.684373         2.882073
 C        -0.178238         0.170157         2.433908
 H         0.627355         1.473451        -0.552398
 H        -1.987515         1.344009        -0.378465
 H        -2.024282        -0.238034         0.517671
 H        -0.776215         3.038183         0.788670
 H        -0.061436         2.813922         2.417525
 H        -1.549284         2.590976         4.093767
 H        -3.017590         1.266982         4.639002
 H        -2.376624        -0.112126         2.892930
 H         0.725811         0.496816         2.996626
 H        -0.111580        -0.987465         2.375425
