19
Iteration:  1774charge 0 multiplicity 1
 O         0.856611         0.920961         0.199346
 C        -0.202074         0.999607         1.098310
 C        -1.899649         0.833558         0.485175
 C        -1.928068         1.606285         1.804618
 C        -0.674232         2.384121         1.561423
 O        -2.890326         2.349736         2.724235
 C        -2.281077         1.567146         3.842537
 C        -1.602102         0.602675         2.872351
 C        -0.154530         0.256736         2.368428
 H         1.110023         0.017403         0.033161
 H        -1.912553         1.330363        -0.534545
 H        -2.429936        -0.192511         0.339359
 H        -0.806540         2.978913         0.622204
 H        -0.363177         3.054750         2.344630
 H        -1.732669         2.273293         4.462085
 H        -2.930324         0.941938         4.433129
 H        -2.172243        -0.341625         2.684329
 H         0.576387         0.732262         3.018237
 H         0.044583        -0.893641         2.231486
