19
Iteration:    67
 O         1.003477         0.742541         0.309335
 C        -0.209629         0.997092         1.089495
 C        -1.743179         1.077160         0.423221
 C        -1.955392         1.722725         1.764827
 C        -0.542459         2.387696         1.690165
 O        -2.884747         2.488590         2.651130
 C        -2.358310         1.520057         3.878078
 C        -1.748590         0.546421         2.812276
 C        -0.343127         0.024680         2.347980
 H         0.621143         0.573802        -0.634082
 H        -1.634137         1.748371        -0.422317
 H        -2.342488         0.191588         0.214348
 H        -0.484592         3.237690         1.086601
 H        -0.048968         2.530518         2.686929
 H        -1.627123         2.110414         4.421853
 H        -3.180951         1.151197         4.481938
 H        -2.379414        -0.336499         2.620191
 H         0.473257        -0.020411         3.026636
 H        -0.538851        -0.963770         1.885862
