19
Iteration:  2423
 O         0.860877         0.896448         0.204938
 C        -0.237842         1.007311         1.013314
 C        -1.819364         0.892264         0.507352
 C        -2.003273         1.654417         1.825168
 C        -0.640515         2.380982         1.649965
 O        -2.956532         2.278326         2.691042
 C        -2.159599         1.623685         3.776274
 C        -1.703678         0.561905         2.833711
 C        -0.201526         0.232345         2.350080
 H         1.285145        -0.003974         0.335310
 H        -1.826555         1.450293        -0.406722
 H        -2.303838        -0.121501         0.551631
 H        -0.631162         3.277060         0.957208
 H        -0.043948         2.526859         2.627628
 H        -1.360328         2.291759         4.072905
 H        -2.705293         1.277746         4.666675
 H        -2.399895        -0.317858         2.916385
 H         0.659759         0.640031         2.985346
 H        -0.020366        -0.821385         2.283133
