19
Iteration:  3660charge 0 multiplicity 1
 O         0.849120         0.738254         0.164222
 C        -0.303449         1.027929         1.041394
 C        -1.776181         0.821280         0.528618
 C        -1.999599         1.694248         1.867692
 C        -0.558620         2.402142         1.562158
 O        -3.016831         2.251498         2.650940
 C        -2.302703         1.624665         3.785292
 C        -1.550861         0.669163         2.863412
 C        -0.104034         0.231538         2.500881
 H         0.764138         1.167614        -0.763843
 H        -1.661765         1.443434        -0.433649
 H        -2.370828        -0.061413         0.635825
 H        -0.862448         3.098493         0.732056
 H        -0.006105         3.018401         2.406226
 H        -1.742800         2.390059         4.436512
 H        -3.134673         1.091412         4.469634
 H        -2.070215        -0.324477         2.915779
 H         0.773617         0.661157         3.013245
 H         0.078494        -0.755490         2.553797
