19
Iteration:  2908charge 0 multiplicity 1
 O         0.872519         0.897976         0.261512
 C        -0.286234         0.996853         1.025270
 C        -1.839455         0.801913         0.637647
 C        -1.912130         1.595613         1.873360
 C        -0.588105         2.408788         1.486329
 O        -3.012431         2.264639         2.616061
 C        -2.224154         1.714653         3.814255
 C        -1.628573         0.580792         2.923868
 C        -0.146960         0.138985         2.355306
 H         0.969099         1.584645        -0.450582
 H        -2.199131         1.240284        -0.237466
 H        -2.169890        -0.176637         0.643284
 H        -0.761618         3.114466         0.638917
 H         0.143045         2.915271         2.151811
 H        -1.499038         2.502920         4.030865
 H        -2.982424         1.296110         4.578161
 H        -2.444073        -0.197361         2.845665
 H         0.674876         0.460728         3.071819
 H        -0.045306        -0.974347         2.100586
