19
Iteration:  4813charge 0 multiplicity 1
 O         0.947897         0.821951         0.218311
 C        -0.178970         1.024235         0.980324
 C        -1.872742         0.821450         0.543406
 C        -2.000058         1.619920         1.809554
 C        -0.634643         2.402435         1.442050
 O        -2.987596         2.284320         2.768375
 C        -2.375359         1.607202         3.861267
 C        -1.578139         0.648962         2.923428
 C        -0.077858         0.297984         2.402906
 H         0.750772         0.401315        -0.601274
 H        -2.098946         1.094774        -0.502947
 H        -2.382078        -0.105123         0.574494
 H        -0.830041         3.130899         0.517340
 H        -0.003603         2.864431         2.283086
 H        -1.750074         2.299773         4.500072
 H        -2.999487         1.122683         4.541478
 H        -2.229178        -0.241231         2.793004
 H         0.766709         0.657883         3.020630
 H        -0.031054        -0.764561         2.339532
