19
Iteration:   334charge 0 multiplicity 1
 O         0.861437         0.791678         0.213768
 C        -0.189263         0.964494         1.124200
 C        -1.762169         1.019769         0.441290
 C        -1.933404         1.762199         1.771733
 C        -0.520542         2.361358         1.593254
 O        -2.913636         2.306525         2.663980
 C        -2.263481         1.587227         3.873327
 C        -1.777456         0.601331         2.769057
 C        -0.337769         0.105991         2.427607
 H         1.710780         0.477714         0.636206
 H        -1.942858         1.785562        -0.335994
 H        -2.330304         0.084271         0.212992
 H        -0.232662         3.177071         0.871736
 H        -0.174909         2.786423         2.442919
 H        -1.574457         2.238901         4.413400
 H        -2.943019         1.124158         4.595169
 H        -2.575881        -0.165703         2.689008
 H         0.502826         0.211334         3.081088
 H        -0.257879        -0.894635         2.140875
