19
Iteration:  3109charge 0 multiplicity 1
 O         0.815815         0.793724         0.240060
 C        -0.295488         1.023660         1.104753
 C        -1.720203         0.863826         0.550291
 C        -1.955232         1.612145         1.870428
 C        -0.680170         2.448383         1.542149
 O        -2.979648         2.284977         2.587339
 C        -2.215270         1.612212         3.821056
 C        -1.592334         0.546220         2.967503
 C        -0.124334         0.228478         2.342363
 H         0.575673         1.280291        -0.537263
 H        -1.896919         1.426994        -0.287670
 H        -2.142827        -0.167601         0.383389
 H        -0.800967         3.080044         0.599852
 H        -0.215348         3.019461         2.387968
 H        -1.358845         2.286214         4.203686
 H        -3.037206         1.553414         4.500794
 H        -2.216267        -0.379505         2.751204
 H         0.770635         0.713901         2.985050
 H        -0.120030        -0.874881         2.199276
