19
Iteration:   413charge 0 multiplicity 1
 O         0.922998         0.847654         0.216721
 C        -0.156717         0.947563         1.106711
 C        -1.758045         0.948606         0.534302
 C        -1.957149         1.785978         1.851285
 C        -0.470387         2.289282         1.587486
 O        -2.979645         2.393462         2.646580
 C        -2.360510         1.539994         3.902273
 C        -1.751265         0.617400         2.800624
 C        -0.312799         0.136880         2.386954
 H         0.672303         0.432225        -0.668023
 H        -1.554954         1.629761        -0.318183
 H        -2.202566        -0.044490         0.244760
 H        -0.476255         2.850378         0.627709
 H         0.138550         2.554717         2.455940
 H        -1.424350         2.004834         4.291642
 H        -3.091799         1.218111         4.641836
 H        -2.381399        -0.199861         2.420116
 H         0.557907         0.638308         2.896224
 H        -0.190294        -0.898892         2.368877
