19
Iteration:  1821
 O         0.897912         0.931606         0.160461
 C        -0.227607         0.990579         1.026359
 C        -1.709887         0.858145         0.502377
 C        -2.070425         1.632555         1.797296
 C        -0.645018         2.347827         1.569434
 O        -3.056903         2.193698         2.734120
 C        -2.199776         1.712199         3.926695
 C        -1.630817         0.666378         2.874898
 C        -0.179822         0.168507         2.335958
 H         0.953788         0.032770        -0.177980
 H        -1.750720         1.510208        -0.348897
 H        -2.223000        -0.055181         0.237054
 H        -0.682264         3.198000         0.875048
 H         0.093323         2.586398         2.416042
 H        -1.425937         2.493341         4.237532
 H        -2.882268         1.479135         4.736926
 H        -2.203660        -0.232669         2.908695
 H         0.662337         0.579496         2.970313
 H        -0.103460        -0.884643         2.237583
