19
Iteration:  1696
 O         0.836424         0.899864         0.144137
 C        -0.238715         1.000144         1.011402
 C        -1.701226         0.897201         0.512275
 C        -2.001359         1.608457         1.853658
 C        -0.655763         2.344547         1.594231
 O        -2.981717         2.221636         2.640277
 C        -2.208388         1.687332         3.876203
 C        -1.625733         0.606723         2.901575
 C        -0.185131         0.273234         2.392280
 H         0.845271         0.031051        -0.219658
 H        -1.911964         1.484065        -0.479592
 H        -2.232589        -0.110945         0.655030
 H        -0.715099         3.176472         0.891436
 H        -0.080612         2.642844         2.477352
 H        -1.620357         2.428480         4.464344
 H        -3.030755         1.240530         4.454129
 H        -2.202225        -0.367213         2.943590
 H         0.649715         0.645490         2.992959
 H        -0.041179        -0.897428         2.367286
