19
Iteration:  4521charge 0 multiplicity 1
 O         0.831371         0.711016         0.248592
 C        -0.276985         1.037117         1.035672
 C        -1.766209         0.927639         0.470655
 C        -1.946231         1.576568         1.829973
 C        -0.716444         2.432205         1.592154
 O        -2.985459         2.167279         2.610205
 C        -2.155432         1.730688         3.845005
 C        -1.615915         0.562768         2.947325
 C        -0.175682         0.292351         2.386832
 H         0.900832         1.319330        -0.443056
 H        -1.703391         1.598456        -0.355928
 H        -2.190013         0.004790         0.376077
 H        -0.961133         3.257936         0.869428
 H        -0.121037         2.839602         2.522619
 H        -1.417740         2.478425         3.979210
 H        -2.880053         1.294094         4.642104
 H        -2.203745        -0.327025         2.950063
 H         0.674764         0.695849         3.004178
 H         0.137248        -0.716096         2.226711
