19
Iteration:  4693charge 0 multiplicity 1
 O         0.862561         0.842286         0.156797
 C        -0.262624         0.962612         1.039998
 C        -1.683568         0.718929         0.512411
 C        -1.951277         1.611846         1.814020
 C        -0.763632         2.428797         1.538447
 O        -2.890808         2.344532         2.731803
 C        -2.272427         1.621975         3.845214
 C        -1.632683         0.612212         2.871534
 C        -0.207001         0.240529         2.450187
 H         0.999520         1.653588        -0.454900
 H        -1.938688         1.133518        -0.491764
 H        -2.097579        -0.240714         0.393352
 H        -0.782414         3.127674         0.676703
 H        -0.331167         2.856984         2.375900
 H        -1.480928         2.386785         4.368551
 H        -2.979156         1.227638         4.530257
 H        -2.323655        -0.264964         2.839463
 H         0.513845         0.785143         3.108135
 H         0.092107        -0.798800         2.379308
