19
Iteration:  2081charge 0 multiplicity 1
 O         0.776976         0.839561         0.184579
 C        -0.313285         1.015335         0.991338
 C        -1.779415         0.952359         0.432710
 C        -1.972905         1.617522         1.813083
 C        -0.514064         2.380804         1.620447
 O        -3.011417         2.146548         2.665605
 C        -2.289660         1.622476         3.942646
 C        -1.573569         0.640191         2.910527
 C        -0.112246         0.327545         2.336798
 H         1.085594        -0.115526         0.297010
 H        -1.900345         1.710828        -0.433441
 H        -2.009884        -0.108882         0.091260
 H        -0.576588         3.212852         0.951327
 H        -0.130650         2.607608         2.604784
 H        -1.753596         2.578342         4.380213
 H        -2.850661         1.195913         4.767819
 H        -2.205793        -0.246331         3.028297
 H         0.823201         0.682675         2.741595
 H        -0.134923        -0.746531         2.195031
