19
Iteration:  3737
 O         0.870215         0.751324         0.218256
 C        -0.272852         0.945740         1.038219
 C        -1.724440         0.916703         0.481856
 C        -1.960833         1.616944         1.880976
 C        -0.657802         2.377519         1.530666
 O        -3.053143         2.176492         2.668268
 C        -2.177218         1.734136         3.818590
 C        -1.619501         0.640227         2.884182
 C        -0.194005         0.262081         2.429933
 H         0.840996         1.594507        -0.303488
 H        -1.811782         1.483643        -0.546658
 H        -2.094230        -0.081147         0.403001
 H        -0.873473         3.180387         0.763182
 H         0.184017         2.778699         2.235617
 H        -1.474724         2.558538         4.038216
 H        -2.836243         1.306177         4.668025
 H        -2.250734        -0.268268         2.965447
 H         0.588229         0.708613         3.106338
 H        -0.129602        -0.815587         2.516336
