19
Iteration:  3181
 O         0.759182         0.658695         0.287240
 C        -0.267785         1.066774         1.067161
 C        -1.792731         0.941719         0.501898
 C        -1.909575         1.653303         1.807400
 C        -0.671447         2.546418         1.504973
 O        -2.942699         2.176180         2.606862
 C        -2.292598         1.580900         3.838513
 C        -1.518429         0.586309         2.967529
 C        -0.116748         0.269758         2.431537
 H         0.804886         1.299290        -0.483494
 H        -1.917056         1.438735        -0.560595
 H        -2.198847        -0.084833         0.309143
 H        -0.677772         3.240690         0.696340
 H        -0.221531         3.069948         2.375564
 H        -1.665004         2.396333         4.166188
 H        -2.901465         1.151360         4.721072
 H        -2.051450        -0.344337         2.882171
 H         0.698337         0.682102         2.824877
 H        -0.163219        -0.737646         2.143948
