19
Iteration:  4458charge 0 multiplicity 1
 O         0.799579         0.736490         0.199016
 C        -0.221307         1.093793         1.045354
 C        -1.710956         0.852970         0.569746
 C        -1.912483         1.623542         1.813017
 C        -0.669728         2.442994         1.474377
 O        -2.941926         2.324208         2.707806
 C        -2.365922         1.561074         3.807425
 C        -1.580349         0.596114         2.917054
 C        -0.137677         0.279310         2.471477
 H         0.726466         1.114354        -0.660624
 H        -2.015944         1.218499        -0.381721
 H        -1.912433        -0.282284         0.351103
 H        -0.880891         3.028001         0.687304
 H        -0.158226         2.955738         2.315496
 H        -1.631845         2.303637         4.349353
 H        -3.181732         1.018914         4.405461
 H        -2.244053        -0.262828         2.831634
 H         0.765474         0.505782         3.048017
 H        -0.066577        -0.744554         2.172301
