19
Iteration:  3299
 O         0.810013         0.684434         0.210428
 C        -0.245000         1.004458         1.108767
 C        -1.836368         0.922238         0.471421
 C        -1.948433         1.666431         1.789765
 C        -0.587630         2.489978         1.491302
 O        -3.025164         2.181958         2.729210
 C        -2.296205         1.633443         3.830650
 C        -1.574213         0.591327         2.860557
 C        -0.058160         0.276333         2.472539
 H         0.771096         1.257096        -0.600336
 H        -1.692880         1.568493        -0.398953
 H        -2.215096         0.046434         0.179164
 H        -0.714237         3.200207         0.715355
 H        -0.057075         2.911715         2.344439
 H        -1.611874         2.384213         4.204290
 H        -2.947286         1.303084         4.702191
 H        -2.277917        -0.208061         2.783903
 H         0.624635         0.741066         3.247328
 H         0.051951        -0.866359         2.295274
