19
Iteration:  1536charge 0 multiplicity 1
 O         0.858745         0.887628         0.240877
 C        -0.280031         0.988264         1.045041
 C        -1.705137         0.812041         0.488119
 C        -1.944635         1.587631         1.828817
 C        -0.680344         2.368892         1.460624
 O        -2.840353         2.311221         2.691656
 C        -2.254387         1.648910         3.910356
 C        -1.656341         0.602005         2.855461
 C        -0.238651         0.283642         2.396382
 H         0.823714         0.068906        -0.228970
 H        -1.992404         1.527583        -0.284064
 H        -2.199450        -0.134722         0.243930
 H        -1.068068         3.035532         0.549728
 H        -0.375173         2.961950         2.389304
 H        -1.623241         2.254959         4.490352
 H        -2.931372         1.098340         4.578122
 H        -2.360012        -0.236223         3.028218
 H         0.468939         0.754284         3.088857
 H         0.025563        -0.780616         2.208989
