19
Iteration:   479charge 0 multiplicity 1
 O         0.862760         0.630061         0.181748
 C        -0.201685         0.967320         1.081686
 C        -1.775497         1.035684         0.463868
 C        -1.962140         1.787074         1.796445
 C        -0.404594         2.421772         1.618709
 O        -3.089418         2.232506         2.722893
 C        -2.312505         1.606226         3.810077
 C        -1.666810         0.672237         2.796572
 C        -0.236199         0.110739         2.442203
 H         1.175017         1.445759        -0.162246
 H        -1.766618         1.754243        -0.397526
 H        -2.151927        -0.030400         0.349003
 H        -0.313394         3.251651         0.758712
 H        -0.045861         2.662243         2.686927
 H        -1.634802         2.450522         4.108211
 H        -3.037805         1.179694         4.523739
 H        -2.427301        -0.139904         2.766458
 H         0.577936         0.557928         3.074332
 H        -0.101355        -0.933845         2.504549
