19
Iteration:    58
 O         0.947670         0.756238         0.349138
 C        -0.200601         1.058003         1.062389
 C        -1.704881         1.085495         0.421302
 C        -1.940219         1.675832         1.888792
 C        -0.467971         2.317623         1.709810
 O        -2.906263         2.463280         2.616684
 C        -2.315277         1.542302         3.851463
 C        -1.765690         0.539160         2.782158
 C        -0.420776         0.094155         2.279605
 H         0.835569         0.241158        -0.535768
 H        -1.900007         1.741093        -0.438008
 H        -2.248459         0.148568         0.158572
 H        -0.487206         3.117085         1.105644
 H         0.061499         2.614888         2.657977
 H        -1.607129         2.177916         4.405902
 H        -3.077204         0.997963         4.399937
 H        -2.522520        -0.288328         2.886712
 H         0.412032         0.219735         2.861365
 H        -0.397435        -1.000609         1.906005
