19
Iteration:   904charge 0 multiplicity 1
 O         0.899786         0.619077         0.236767
 C        -0.221076         1.017613         1.088719
 C        -1.892419         1.060523         0.462486
 C        -1.933049         1.640300         1.831725
 C        -0.644008         2.430427         1.602962
 O        -2.876757         2.322464         2.655416
 C        -2.312949         1.593457         3.808820
 C        -1.620665         0.508509         2.871414
 C        -0.181402         0.226475         2.397825
 H         0.980421         1.284720        -0.512088
 H        -1.888414         1.888699        -0.253864
 H        -2.598024         0.275054         0.155940
 H        -0.694136         3.249419         0.776536
 H        -0.173028         2.811713         2.442703
 H        -1.540824         2.085763         4.472586
 H        -3.158489         1.261910         4.462101
 H        -2.353688        -0.313008         2.744687
 H         0.561243         0.679653         3.086133
 H         0.108454        -0.805027         2.387052
