19
Iteration:  1183charge 0 multiplicity 1
 O         0.841844         0.763761         0.201233
 C        -0.208410         0.940605         1.087464
 C        -1.796259         0.856185         0.594108
 C        -2.030850         1.694602         1.763230
 C        -0.609186         2.428491         1.522464
 O        -2.988052         2.194144         2.732629
 C        -2.132192         1.647996         3.766311
 C        -1.644369         0.707351         2.781678
 C        -0.221749         0.212562         2.431951
 H         1.085246         1.641634        -0.075267
 H        -1.922969         1.325992        -0.381318
 H        -2.268439        -0.136926         0.621324
 H        -0.628786         3.092342         0.739986
 H        -0.194073         2.843572         2.452604
 H        -1.383573         2.480462         4.206574
 H        -2.691336         1.235838         4.581249
 H        -2.301065        -0.131455         2.803203
 H         0.518323         0.553406         3.179173
 H        -0.220455        -0.870665         2.363829
