19
Iteration:  1439charge 0 multiplicity 1
 O         0.780520         0.854833         0.110328
 C        -0.269597         0.955443         0.973519
 C        -1.813684         0.833378         0.520885
 C        -1.895674         1.648216         1.803221
 C        -0.566919         2.432847         1.573279
 O        -2.925156         2.308603         2.645254
 C        -2.270045         1.587581         3.828392
 C        -1.631049         0.595331         2.893662
 C        -0.181110         0.278605         2.524100
 H         1.482785         0.368351         0.517716
 H        -2.060866         1.328238        -0.430688
 H        -2.272365        -0.172670         0.457218
 H        -0.831501         3.209348         0.843670
 H        -0.069884         2.633767         2.453127
 H        -1.720522         2.384408         4.326812
 H        -2.918041         1.082871         4.606302
 H        -2.451224        -0.156118         2.867436
 H         0.662292         0.790667         3.052924
 H        -0.030725        -0.833580         2.602762
