19
Iteration:  4828
 O         0.967835         0.782403         0.201691
 C        -0.314172         0.967180         0.999430
 C        -1.735574         0.826424         0.484104
 C        -1.932294         1.683478         1.932057
 C        -0.776084         2.451481         1.488964
 O        -2.967706         2.270796         2.669003
 C        -2.310755         1.604777         3.941264
 C        -1.544885         0.623445         2.910959
 C        -0.161283         0.296545         2.357377
 H         0.734598         0.100733        -0.418558
 H        -1.954638         1.598780        -0.265452
 H        -2.133659        -0.268828         0.411728
 H        -0.989369         3.091315         0.720276
 H        -0.277918         2.997766         2.189735
 H        -1.656793         2.424568         4.420821
 H        -3.230809         1.195013         4.526202
 H        -2.162741        -0.318130         2.842500
 H         0.692525         0.866318         2.812775
 H         0.222150        -0.755363         2.264645
