19
Iteration:   534
 O         0.924042         0.744905         0.170427
 C        -0.209436         1.017214         1.043639
 C        -1.693414         0.857473         0.463297
 C        -1.949433         1.653396         1.829866
 C        -0.657563         2.343677         1.651066
 O        -2.928923         2.441107         2.686725
 C        -2.330150         1.724749         3.879303
 C        -1.706924         0.544180         2.854875
 C        -0.260409         0.090534         2.310303
 H         1.687388         1.383810         0.108960
 H        -1.705012         1.407987        -0.520115
 H        -2.301676        -0.091843         0.439722
 H        -0.877829         3.229127         0.916914
 H        -0.186275         2.706806         2.669179
 H        -1.598114         2.368788         4.458063
 H        -3.161486         1.510423         4.598599
 H        -2.413664        -0.300574         2.968025
 H         0.603038         0.200540         3.008690
 H        -0.338861        -0.944408         2.046393
