19
Iteration:  3385
 O         0.817704         0.756737         0.230900
 C        -0.245616         1.030026         0.993538
 C        -1.824263         0.929180         0.497428
 C        -1.897352         1.626638         1.834830
 C        -0.675455         2.433654         1.602957
 O        -2.952228         2.174185         2.634654
 C        -2.210639         1.723590         3.811953
 C        -1.633528         0.578303         2.902654
 C        -0.155812         0.204562         2.445650
 H         0.981125         1.487022        -0.460440
 H        -1.992506         1.320918        -0.553968
 H        -2.045634        -0.150536         0.641164
 H        -0.866373         3.062329         0.746103
 H        -0.261147         2.994322         2.455641
 H        -1.452342         2.393083         4.115483
 H        -2.937549         1.535285         4.594936
 H        -2.300785        -0.260334         2.869480
 H         0.660688         0.497454         3.135162
 H         0.017788        -0.871778         2.342308
