19
Iteration:  3902
 O         0.839917         0.820046         0.193445
 C        -0.252495         0.996571         1.075177
 C        -1.783067         0.772794         0.502148
 C        -2.010778         1.610181         1.774914
 C        -0.656969         2.394443         1.572001
 O        -2.970364         2.295342         2.600320
 C        -2.177427         1.684989         3.823214
 C        -1.592466         0.636611         2.948053
 C        -0.162483         0.205331         2.458888
 H         1.012016         1.580296        -0.298272
 H        -1.992717         1.383172        -0.406757
 H        -2.281810        -0.158660         0.387142
 H        -0.705504         3.279018         0.866876
 H        -0.114929         2.629244         2.454381
 H        -1.619223         2.358483         4.301162
 H        -2.978767         1.182517         4.397905
 H        -2.155340        -0.252924         3.168513
 H         0.656076         0.612112         3.093513
 H        -0.164445        -0.852082         2.281813
