19
Iteration:   757
 O         0.726364         0.767206         0.023998
 C        -0.218755         0.984642         1.069949
 C        -1.675381         0.965358         0.507911
 C        -1.962632         1.613476         1.847368
 C        -0.603849         2.401796         1.650463
 O        -2.846543         2.378108         2.637564
 C        -2.399747         1.586774         3.807128
 C        -1.685870         0.572168         2.870371
 C        -0.176896         0.210063         2.509750
 H         1.640798         0.653866         0.410632
 H        -1.657325         1.618216        -0.349951
 H        -2.108290        -0.005495         0.351444
 H        -0.722046         3.144580         0.905812
 H         0.030739         2.783096         2.587706
 H        -1.632570         2.110380         4.492757
 H        -3.323393         1.202356         4.297937
 H        -2.309923        -0.310372         2.873490
 H         0.638857         0.585420         3.123036
 H        -0.022472        -0.893362         2.358492
