19
Iteration:  4857
 O         0.816431         0.836766         0.101475
 C        -0.206037         1.028961         1.155582
 C        -1.790714         0.890576         0.486583
 C        -1.979058         1.655908         1.785469
 C        -0.625058         2.401825         1.530237
 O        -3.045697         2.149176         2.713422
 C        -2.240550         1.674305         3.813916
 C        -1.572047         0.608348         2.845669
 C        -0.124465         0.301087         2.519537
 H         0.738212        -0.101118         0.176554
 H        -1.943222         1.273360        -0.563618
 H        -2.257184        -0.068357         0.416291
 H        -0.659171         3.176896         0.563014
 H        -0.242327         2.914247         2.507776
 H        -1.422980         2.394281         4.064068
 H        -2.792148         1.516317         4.670289
 H        -2.154624        -0.335737         2.877452
 H         0.708777         0.648266         3.167884
 H         0.083749        -0.701466         2.238488
