19
Iteration:  4654charge 0 multiplicity 1
 O         0.887626         0.757512         0.208379
 C        -0.235589         0.998773         0.981869
 C        -1.796516         0.915866         0.581455
 C        -1.904159         1.682381         1.848805
 C        -0.660530         2.446886         1.487239
 O        -2.986929         2.170235         2.640667
 C        -2.283643         1.616809         3.811604
 C        -1.535006         0.651228         2.960016
 C        -0.179111         0.238739         2.439966
 H         0.683635         0.996804        -0.670373
 H        -2.124809         1.588438        -0.309722
 H        -2.389881        -0.056473         0.490783
 H        -0.891178         3.148403         0.676634
 H        -0.105782         2.927757         2.513234
 H        -1.779271         2.297227         4.459589
 H        -3.076633         1.142170         4.543773
 H        -2.219640        -0.181803         2.794065
 H         0.667099         0.769399         2.940899
 H        -0.092680        -0.868436         2.447550
