19
Iteration:  4244charge 0 multiplicity 1
 O         0.821533         0.815768         0.150525
 C        -0.277405         1.007772         1.064997
 C        -1.718204         0.803801         0.604224
 C        -1.989102         1.659249         1.823198
 C        -0.579403         2.401225         1.636642
 O        -3.027559         2.208024         2.550554
 C        -2.185073         1.702473         3.874925
 C        -1.587051         0.685254         2.882641
 C        -0.186142         0.172582         2.427031
 H         0.630169         1.486415        -0.585806
 H        -1.945896         1.323968        -0.364577
 H        -2.006462        -0.275887         0.535927
 H        -0.797479         3.049401         0.759136
 H        -0.043379         2.799509         2.422081
 H        -1.557263         2.621266         4.107633
 H        -3.014057         1.253955         4.646082
 H        -2.370968        -0.115253         2.917417
 H         0.737420         0.483259         3.009165
 H        -0.127180        -0.977710         2.372654
