19
Iteration:  1959charge 0 multiplicity 1
 O         0.791526         0.901287         0.170699
 C        -0.211768         0.963144         1.052141
 C        -1.696502         0.898193         0.499474
 C        -1.997660         1.712223         1.800018
 C        -0.662388         2.424476         1.573209
 O        -3.116969         2.159285         2.763871
 C        -2.216065         1.712552         3.841775
 C        -1.567068         0.616853         2.767036
 C        -0.095912         0.169936         2.439626
 H         1.044607         0.011939        -0.097134
 H        -1.498146         1.506980        -0.404501
 H        -2.267649        -0.088475         0.263049
 H        -0.535784         3.297115         0.927259
 H        -0.093854         2.574149         2.527082
 H        -1.631081         2.655778         4.129165
 H        -2.707278         1.064461         4.644164
 H        -2.343463        -0.172324         2.963271
 H         0.756660         0.393986         3.001694
 H        -0.217470        -0.953317         2.215356
