19
Iteration:  3215
 O         0.932072         0.805274         0.191062
 C        -0.262023         0.980171         1.007213
 C        -1.730995         0.836763         0.449209
 C        -2.015499         1.645191         1.805913
 C        -0.543538         2.351152         1.540203
 O        -3.008941         2.219045         2.759125
 C        -2.255450         1.679732         3.855878
 C        -1.681168         0.616218         2.931807
 C        -0.237256         0.285638         2.377155
 H         0.773093         1.457938        -0.486711
 H        -1.931308         1.382865        -0.537668
 H        -2.138456        -0.202000         0.630451
 H        -0.679070         3.035130         0.705496
 H        -0.111679         2.852225         2.444973
 H        -1.573188         2.509078         4.064736
 H        -2.763309         1.433332         4.812536
 H        -2.225726        -0.338769         2.988983
 H         0.480644         0.689606         3.004479
 H         0.049246        -0.732128         2.364577
