19
Iteration:  1640charge 0 multiplicity 1
 O         0.817846         0.906682         0.235110
 C        -0.249949         1.007204         1.035586
 C        -1.776682         0.720291         0.466055
 C        -1.942927         1.694429         1.837881
 C        -0.658174         2.509239         1.518012
 O        -2.969565         2.234457         2.775516
 C        -2.196640         1.651766         3.783531
 C        -1.609983         0.633021         2.852542
 C        -0.211445         0.198730         2.372587
 H         1.144107        -0.027204         0.265732
 H        -2.075083         1.336713        -0.472627
 H        -2.186208        -0.344268         0.486106
 H        -0.695397         3.271633         0.802840
 H        -0.092651         2.781093         2.403374
 H        -1.340728         2.266586         4.215185
 H        -2.806229         1.324043         4.636779
 H        -2.355073        -0.153942         2.636899
 H         0.694197         0.484885         2.989941
 H        -0.173405        -0.942690         2.273956
