19
Iteration:  1553charge 0 multiplicity 1
 O         0.876068         0.879418         0.111910
 C        -0.189049         1.022129         1.050103
 C        -1.703142         0.791993         0.494559
 C        -1.985049         1.689598         1.849687
 C        -0.678955         2.463788         1.465967
 O        -2.942142         2.337698         2.737495
 C        -2.317431         1.596384         3.885341
 C        -1.640805         0.587739         2.927257
 C        -0.200423         0.183310         2.459521
 H         0.695910         0.073464        -0.376574
 H        -1.741247         1.112600        -0.582318
 H        -2.015021        -0.270895         0.504561
 H        -0.894294         2.961141         0.568113
 H        -0.002221         2.888109         2.245819
 H        -1.632511         2.347623         4.484647
 H        -3.135092         1.329771         4.605277
 H        -2.304848        -0.270878         2.697202
 H         0.660580         0.489213         3.082127
 H        -0.054322        -0.919145         2.395907
