19
Iteration:  4192
 O         0.890417         0.761986         0.335288
 C        -0.281703         0.980938         1.054094
 C        -1.846926         0.864149         0.515456
 C        -1.983255         1.666207         1.800752
 C        -0.630822         2.385133         1.457984
 O        -2.978735         2.186047         2.672029
 C        -2.160420         1.653125         3.769329
 C        -1.544492         0.612683         2.886179
 C        -0.211460         0.310352         2.414861
 H         0.731258         1.329382        -0.450875
 H        -1.952483         1.630214        -0.375124
 H        -2.483034         0.023925         0.547435
 H        -0.850789         3.084325         0.684755
 H        -0.093534         2.851362         2.350254
 H        -1.574194         2.374818         4.294695
 H        -2.853591         1.424241         4.645109
 H        -2.281150        -0.238640         2.893080
 H         0.594397         0.685627         3.009282
 H         0.028515        -0.793175         2.305288
