19
Iteration:  4668
 O         0.889380         0.785353         0.216746
 C        -0.272007         1.011376         1.041965
 C        -1.802516         0.834649         0.491130
 C        -2.002706         1.567176         1.882646
 C        -0.675198         2.380823         1.541564
 O        -2.945541         2.352222         2.665302
 C        -2.332631         1.610276         3.869495
 C        -1.570897         0.587285         2.908655
 C        -0.091820         0.314354         2.393745
 H         0.753133         1.132610        -0.714844
 H        -1.899645         1.323843        -0.441289
 H        -2.216294        -0.198537         0.320109
 H        -0.828100         3.126096         0.735974
 H         0.096927         2.862626         2.303202
 H        -1.703311         2.485683         4.406323
 H        -3.106962         1.105700         4.451528
 H        -2.092596        -0.369054         2.960309
 H         0.708473         0.641193         2.966972
 H         0.100240        -0.760960         2.156876
