19
Iteration:  2197
 O         0.736204         0.831944         0.117355
 C        -0.326898         1.089835         1.046483
 C        -1.704509         0.990599         0.530558
 C        -1.876998         1.724668         1.883770
 C        -0.610730         2.458073         1.499716
 O        -3.011975         2.116696         2.618705
 C        -2.259903         1.555083         3.888579
 C        -1.556567         0.592173         2.957740
 C        -0.138400         0.209971         2.412796
 H         1.102755         0.036310         0.570907
 H        -1.680142         1.537211        -0.406951
 H        -2.160059        -0.025537         0.389257
 H        -0.839351         3.184940         0.711314
 H        -0.008007         2.964163         2.347576
 H        -1.663897         2.300848         4.352211
 H        -3.114459         1.351192         4.610718
 H        -2.183748        -0.317836         2.804916
 H         0.798240         0.480921         2.911024
 H        -0.215768        -0.911155         2.093765
