19
Iteration:  3778charge 0 multiplicity 1
 O         0.822532         0.779977         0.217924
 C        -0.254265         1.001327         1.025817
 C        -1.717175         0.810644         0.541429
 C        -1.924233         1.666750         1.849954
 C        -0.673424         2.327731         1.595595
 O        -3.021167         2.293795         2.605286
 C        -2.268062         1.653520         3.816935
 C        -1.522268         0.697633         2.927567
 C        -0.183230         0.234331         2.403324
 H         0.908503         1.393061        -0.471144
 H        -2.054332         1.359171        -0.359217
 H        -2.196557        -0.120002         0.757642
 H        -0.894845         2.962554         0.775998
 H        -0.116864         2.912970         2.381486
 H        -1.708587         2.361377         4.399055
 H        -2.944441         1.128733         4.425079
 H        -2.248735        -0.125679         2.714246
 H         0.856485         0.435394         2.808681
 H         0.028585        -0.970380         2.272847
