19
Iteration:  2754charge 0 multiplicity 1
 O         0.802576         0.754211         0.193333
 C        -0.248842         0.944641         1.100061
 C        -1.828710         0.830381         0.521917
 C        -2.006485         1.687422         1.779766
 C        -0.722209         2.414605         1.555975
 O        -3.031837         2.195143         2.716880
 C        -2.156436         1.728303         3.777615
 C        -1.512529         0.667629         2.799312
 C        -0.125720         0.232546         2.438126
 H         1.474002         1.436975         0.182338
 H        -1.942520         1.439290        -0.439469
 H        -2.122443        -0.205979         0.554609
 H        -0.746445         3.106595         0.666328
 H        -0.364650         2.936340         2.470268
 H        -1.481174         2.438772         4.276953
 H        -2.629797         1.232918         4.748342
 H        -2.204778        -0.213964         2.942950
 H         0.758737         0.717388         2.869432
 H         0.068818        -0.929748         2.290327
