19
Iteration:  2381
 O         0.921071         0.863614         0.087548
 C        -0.248032         0.952463         1.033984
 C        -1.739409         0.949482         0.457123
 C        -1.974421         1.680686         1.834688
 C        -0.607151         2.400069         1.514118
 O        -2.992035         2.231023         2.775990
 C        -2.306832         1.586477         3.933504
 C        -1.611036         0.634354         2.884264
 C        -0.237125         0.237962         2.417963
 H         1.335707        -0.048114         0.169878
 H        -1.591172         1.585648        -0.464645
 H        -2.311158        -0.022787         0.201216
 H        -0.826808         3.086647         0.738276
 H        -0.051964         2.910028         2.243040
 H        -1.687507         2.255174         4.579038
 H        -3.093937         1.183569         4.656122
 H        -2.363134        -0.185368         2.741637
 H         0.656345         0.469372         2.982122
 H        -0.302751        -0.818679         2.230443
