19
Iteration:  1431
 O         0.753155         0.847751         0.143704
 C        -0.265568         0.980055         1.049324
 C        -1.805222         0.857810         0.479080
 C        -1.891981         1.660143         1.848995
 C        -0.561315         2.403804         1.469185
 O        -2.953618         2.287756         2.641767
 C        -2.261306         1.591580         3.880677
 C        -1.648881         0.629807         2.881097
 C        -0.189822         0.226323         2.481301
 H         1.509714         0.439055         0.495209
 H        -1.989180         1.397302        -0.444785
 H        -2.191795        -0.150791         0.564695
 H        -0.676071         3.140117         0.791955
 H         0.070355         2.701627         2.332630
 H        -1.450442         2.203752         4.457691
 H        -2.979423         1.023223         4.540256
 H        -2.318404        -0.143016         2.586734
 H         0.429864         0.952332         3.081636
 H         0.224017        -0.700915         2.743307
