19
Iteration:   612charge 0 multiplicity 1
 O         0.778365         0.582035         0.138139
 C        -0.286666         1.055811         1.100227
 C        -1.623707         0.960066         0.432935
 C        -1.901604         1.694927         1.788583
 C        -0.556336         2.440530         1.629719
 O        -2.967917         2.307983         2.683302
 C        -2.436265         1.650006         3.892992
 C        -1.637209         0.605592         2.929664
 C        -0.222520         0.221273         2.324206
 H         1.479993         1.253863         0.113728
 H        -1.455078         1.456583        -0.553601
 H        -1.882118        -0.121545         0.295697
 H        -0.345952         3.337838         0.982194
 H         0.130620         2.535578         2.683673
 H        -1.839692         2.378398         4.533271
 H        -3.228430         1.152888         4.549727
 H        -2.336578        -0.276645         2.860558
 H         0.581578         0.580898         2.957166
 H        -0.169725        -0.859248         2.052666
