19
Iteration:  1638charge 0 multiplicity 1
 O         0.813613         0.889005         0.224859
 C        -0.233464         1.017338         1.023019
 C        -1.758440         0.736869         0.451249
 C        -1.935110         1.688081         1.831829
 C        -0.667000         2.511135         1.529919
 O        -2.992141         2.232456         2.767263
 C        -2.180392         1.667132         3.813739
 C        -1.621915         0.610716         2.853717
 C        -0.204229         0.203240         2.377228
 H         1.155089        -0.064483         0.266316
 H        -2.115210         1.242211        -0.467161
 H        -2.220979        -0.239314         0.509758
 H        -0.657370         3.290234         0.845560
 H        -0.131601         2.811450         2.407495
 H        -1.378569         2.207779         4.202080
 H        -2.799248         1.316242         4.617551
 H        -2.373816        -0.128218         2.711796
 H         0.727062         0.504536         2.986440
 H        -0.205455        -0.867525         2.279236
