19
Iteration:  2479
 O         0.840299         0.800182         0.178441
 C        -0.221380         1.041915         1.041162
 C        -1.870816         0.869877         0.636940
 C        -1.910220         1.666056         1.871332
 C        -0.579068         2.419412         1.686367
 O        -2.928826         2.217126         2.603199
 C        -2.307235         1.668622         3.806823
 C        -1.592672         0.629444         2.804738
 C        -0.162907         0.212209         2.361219
 H         0.594527         0.725130        -0.759621
 H        -2.115729         1.314934        -0.362752
 H        -2.128384        -0.213935         0.570392
 H        -0.704276         3.176638         0.936226
 H        -0.033500         2.914272         2.548418
 H        -1.670465         2.353442         4.340672
 H        -3.016975         1.111826         4.487908
 H        -2.371493        -0.172133         2.854948
 H         0.693059         0.500099         2.960370
 H        -0.154198        -0.854267         2.216500
