19
Iteration:  1897
 O         0.845406         0.904687         0.125325
 C        -0.208723         0.957350         1.063830
 C        -1.803894         0.839423         0.530447
 C        -1.957067         1.720171         1.792252
 C        -0.703304         2.420379         1.481530
 O        -2.892030         2.319570         2.733520
 C        -2.319821         1.500815         3.930339
 C        -1.620370         0.607436         2.806807
 C        -0.113900         0.285748         2.451606
 H         0.994365        -0.040482        -0.043539
 H        -1.771407         1.392545        -0.412967
 H        -2.214838        -0.173673         0.446291
 H        -0.607589         3.104588         0.674732
 H        -0.307167         2.702151         2.448089
 H        -2.031486         2.232861         4.655586
 H        -3.033654         0.876796         4.372205
 H        -2.203797        -0.260980         2.611823
 H         0.694147         0.625733         3.202041
 H        -0.104707        -0.788742         2.421784
