19
Iteration:  3086
 O         0.929058         0.728811         0.230840
 C        -0.204526         1.070993         1.021528
 C        -1.795969         0.880683         0.497635
 C        -1.962261         1.560165         1.820486
 C        -0.702668         2.437521         1.541049
 O        -3.038726         2.162765         2.741959
 C        -2.198312         1.746933         3.835630
 C        -1.575514         0.671620         2.895804
 C        -0.199620         0.195163         2.323994
 H         1.058038         1.444824        -0.485460
 H        -1.961103         1.382025        -0.409502
 H        -2.179539        -0.166276         0.446615
 H        -0.878433         3.307921         0.845896
 H        -0.183231         2.750807         2.521646
 H        -1.670736         2.686173         4.186605
 H        -2.804307         1.360932         4.637247
 H        -2.233127        -0.235856         2.813602
 H         0.547889         0.528529         3.182848
 H        -0.331974        -0.869131         2.265792
