19
Iteration:  2345
 O         0.817391         0.835043         0.126920
 C        -0.216787         1.035665         1.061932
 C        -1.724883         0.865151         0.554511
 C        -1.931897         1.661066         1.809199
 C        -0.551268         2.437728         1.642342
 O        -2.998147         2.256015         2.706391
 C        -2.344116         1.607551         3.861600
 C        -1.603022         0.596324         2.863525
 C        -0.176179         0.227660         2.364483
 H         0.419244         0.421982        -0.695663
 H        -1.753774         1.353085        -0.394836
 H        -2.261409        -0.113535         0.540111
 H        -0.662348         3.225837         0.819084
 H         0.076879         2.764114         2.565248
 H        -1.612774         2.274877         4.324333
 H        -3.131136         1.264801         4.507708
 H        -2.250334        -0.283432         2.686497
 H         0.684420         0.498537         3.067060
 H        -0.097886        -0.810659         2.160908
