19
Iteration:  3471
 O         0.838721         0.745090         0.188064
 C        -0.232789         0.953208         1.019888
 C        -1.711116         0.838279         0.478794
 C        -2.012771         1.608964         1.826664
 C        -0.630690         2.501527         1.600247
 O        -2.985565         2.274620         2.709588
 C        -2.301204         1.632031         3.854007
 C        -1.592246         0.644291         2.866742
 C        -0.158909         0.258885         2.393306
 H         0.696295         0.957684        -0.730422
 H        -1.816797         1.487319        -0.364750
 H        -1.993626        -0.268564         0.452469
 H        -0.635824         3.219145         0.745769
 H         0.057853         2.893656         2.386741
 H        -1.587574         2.311516         4.505674
 H        -3.025075         1.150872         4.562316
 H        -2.269052        -0.224198         2.911015
 H         0.464387         0.838562         3.033619
 H         0.073187        -0.709813         2.462137
