19
Iteration:  1366
 O         0.739055         0.736028         0.085151
 C        -0.233714         1.002724         1.042212
 C        -1.736720         0.927395         0.521577
 C        -1.908483         1.612942         1.853258
 C        -0.563450         2.415522         1.580617
 O        -3.070412         2.217169         2.660746
 C        -2.310447         1.704034         3.775724
 C        -1.548152         0.629982         2.967319
 C        -0.161108         0.203755         2.442740
 H         1.620987         1.113259         0.399997
 H        -1.802908         1.613928        -0.325177
 H        -2.263212        -0.006329         0.311799
 H        -0.737329         3.245560         0.924251
 H         0.107061         2.668621         2.491073
 H        -1.520333         2.414170         4.107560
 H        -3.078859         1.467908         4.546681
 H        -2.230197        -0.190308         2.919753
 H         0.725879         0.511740         3.032535
 H        -0.045384        -0.831667         2.251440
