19
Iteration:  1256
 O         0.731458         0.722162         0.027517
 C        -0.283261         0.950469         1.113957
 C        -1.724311         0.867741         0.588507
 C        -1.943841         1.714278         1.831196
 C        -0.549500         2.477508         1.594111
 O        -3.058402         2.182238         2.708445
 C        -2.256264         1.624042         3.783374
 C        -1.603861         0.659664         2.801446
 C        -0.145175         0.340686         2.506831
 H         1.604516         0.560783         0.362440
 H        -1.786485         1.390683        -0.380815
 H        -2.167343        -0.142985         0.493682
 H        -0.466442         3.073785         0.653003
 H         0.082051         2.731853         2.449518
 H        -1.620939         2.377140         4.120117
 H        -2.782012         1.219519         4.625479
 H        -2.215096        -0.214659         2.532145
 H         0.586308         0.877970         3.113624
 H        -0.002927        -0.737442         2.419747
