19
Iteration:   539charge 0 multiplicity 1
 O         0.928841         0.754423         0.176848
 C        -0.212081         0.970308         1.037852
 C        -1.671880         0.875661         0.492364
 C        -1.982646         1.694450         1.831201
 C        -0.657497         2.344517         1.612816
 O        -2.906155         2.407431         2.695259
 C        -2.300675         1.687704         3.851700
 C        -1.711409         0.588783         2.893295
 C        -0.301630         0.105106         2.304612
 H         1.613008         1.390135         0.174174
 H        -1.714015         1.343556        -0.462883
 H        -2.180725        -0.058298         0.420208
 H        -0.735617         3.180063         1.013020
 H        -0.300090         2.661204         2.557327
 H        -1.699617         2.363412         4.430477
 H        -3.119566         1.438777         4.521841
 H        -2.436133        -0.228364         2.913561
 H         0.530696         0.340658         2.954100
 H        -0.324710        -0.997727         2.036584
