19
Iteration:  3487
 O         0.835046         0.681260         0.168730
 C        -0.223153         1.067451         1.054971
 C        -1.701715         0.914241         0.524857
 C        -1.951947         1.672585         1.831295
 C        -0.613154         2.404145         1.497043
 O        -3.024393         2.201646         2.655250
 C        -2.252782         1.601571         3.888205
 C        -1.586483         0.661447         2.909211
 C        -0.169398         0.297177         2.482738
 H         0.577914         1.117493        -0.615851
 H        -1.789202         1.474663        -0.467192
 H        -2.232481         0.041677         0.254931
 H        -0.873101         3.138318         0.733973
 H        -0.188168         2.762636         2.433627
 H        -1.837602         2.384617         4.436186
 H        -2.984222         1.114541         4.602162
 H        -2.205186        -0.228132         2.788430
 H         0.756408         0.690948         3.040242
 H        -0.267202        -0.831000         2.155903
