19
Iteration:     6
 O         0.827478         0.732867         0.179401
 C        -0.203393         0.991915         1.158141
 C        -1.704046         1.169746         0.434401
 C        -1.892070         1.734679         1.848999
 C        -0.469952         2.328589         1.767509
 O        -2.926230         2.371061         2.655030
 C        -2.363137         1.564702         3.772596
 C        -1.707159         0.600667         2.733715
 C        -0.414788         0.027168         2.358417
 H         1.710966         0.648794         0.595428
 H        -1.623145         1.935333        -0.354915
 H        -2.185790         0.202104         0.203021
 H        -0.422387         3.066801         0.922259
 H         0.182611         2.566594         2.634509
 H        -1.619224         2.000897         4.484770
 H        -3.115040         1.096218         4.435404
 H        -2.496184        -0.175315         2.593384
 H         0.485968         0.264024         2.971332
 H        -0.349184        -1.051140         2.076206
