19
Iteration:  4032
 O         0.869694         0.795811         0.239333
 C        -0.255151         0.974056         1.041597
 C        -1.816920         0.852806         0.556887
 C        -1.956612         1.654838         1.815729
 C        -0.606208         2.338299         1.472388
 O        -3.037332         2.238659         2.678940
 C        -2.266523         1.637424         3.834422
 C        -1.623173         0.665998         2.892934
 C        -0.103757         0.290826         2.430393
 H         1.069724         1.465276        -0.486790
 H        -1.918788         1.465814        -0.348129
 H        -2.241821        -0.102181         0.560158
 H        -0.610684         2.909425         0.587017
 H        -0.091457         2.797764         2.238111
 H        -1.568209         2.464265         4.356831
 H        -2.965371         1.313493         4.629021
 H        -2.200502        -0.216827         2.660820
 H         0.858745         0.419614         3.006630
 H        -0.173416        -0.821457         2.377552
