19
Iteration:  4124
 O         0.845125         0.764003         0.146059
 C        -0.232356         0.986506         1.048856
 C        -1.801512         0.832555         0.605290
 C        -1.946593         1.654737         1.860032
 C        -0.570217         2.415777         1.579622
 O        -3.010517         2.234258         2.594117
 C        -2.343034         1.719577         3.822268
 C        -1.562228         0.633882         2.905677
 C        -0.123161         0.248951         2.411737
 H         0.660359         1.220401        -0.636345
 H        -1.869482         1.457737        -0.290759
 H        -2.302880        -0.182454         0.675695
 H        -0.844772         3.040936         0.687909
 H         0.015456         2.798163         2.424957
 H        -1.899601         2.404205         4.539393
 H        -3.137811         1.123645         4.501131
 H        -2.091699        -0.339559         3.059457
 H         0.792855         0.633796         2.932106
 H         0.213375        -0.813249         2.260952
