19
Iteration:  2223charge 0 multiplicity 1
 O         0.796177         0.835108        -0.060152
 C        -0.169791         1.035379         1.031764
 C        -1.754298         0.874921         0.541039
 C        -1.921070         1.649863         1.791857
 C        -0.637193         2.346125         1.693567
 O        -3.034640         2.202010         2.768886
 C        -2.340499         1.654384         3.829798
 C        -1.605250         0.638544         2.832255
 C        -0.100121         0.273239         2.436056
 H         1.464061         0.249428         0.400920
 H        -1.961291         1.423745        -0.395548
 H        -2.273368        -0.006379         0.438234
 H        -0.559173         3.273623         1.065912
 H        -0.236288         2.656299         2.711418
 H        -1.638111         2.292819         4.427541
 H        -3.093965         1.468089         4.540035
 H        -2.134012        -0.306410         2.823522
 H         0.638004         0.732916         3.083464
 H        -0.116466        -0.824566         2.477370
