19
Iteration:  1331
 O         0.718019         0.908519         0.055634
 C        -0.226275         0.910032         1.085695
 C        -1.682759         0.752724         0.527249
 C        -1.920714         1.669194         1.786453
 C        -0.560659         2.359202         1.578507
 O        -2.962024         2.250589         2.693403
 C        -2.242107         1.700064         3.774687
 C        -1.648878         0.628805         2.936360
 C        -0.252314         0.194215         2.471300
 H         1.533362         1.436842         0.293192
 H        -1.708144         1.418522        -0.344350
 H        -2.273963        -0.175178         0.399961
 H        -0.737131         3.194146         0.775051
 H        -0.000071         2.768522         2.445352
 H        -1.431705         2.390842         4.239967
 H        -3.042604         1.557974         4.655697
 H        -2.372033        -0.187252         2.720642
 H         0.414383         0.618203         3.266331
 H        -0.139371        -0.922492         2.434635
