19
Iteration:  4664
 O         0.904786         0.774388         0.208328
 C        -0.287280         1.027119         1.023207
 C        -1.811093         0.835355         0.511223
 C        -1.960529         1.615797         1.872776
 C        -0.678795         2.392279         1.528948
 O        -2.963731         2.307307         2.647577
 C        -2.311327         1.617995         3.856291
 C        -1.529611         0.594700         2.926559
 C        -0.144952         0.290840         2.407235
 H         0.733355         1.073612        -0.703544
 H        -1.935844         1.604595        -0.362253
 H        -2.297919        -0.185584         0.437497
 H        -0.815910         3.141674         0.746410
 H         0.070211         2.926763         2.330122
 H        -1.780631         2.342706         4.338394
 H        -3.094153         0.999392         4.435529
 H        -2.103069        -0.332173         3.010527
 H         0.721403         0.644569         3.069451
 H         0.070375        -0.791402         2.293270
