19
Iteration:  2176charge 0 multiplicity 1
 O         0.907563         0.844985         0.183228
 C        -0.228892         1.034711         1.044294
 C        -1.898548         0.971844         0.541262
 C        -1.972424         1.633946         1.871863
 C        -0.594630         2.468493         1.482575
 O        -2.992286         2.162894         2.733227
 C        -2.244700         1.595537         3.841162
 C        -1.598499         0.591312         2.852336
 C        -0.172818         0.225130         2.388336
 H         1.291601        -0.083296         0.136994
 H        -2.024972         1.551436        -0.344486
 H        -2.351820         0.001803         0.397177
 H        -0.794273         3.153263         0.636544
 H        -0.023617         3.144665         2.269432
 H        -1.699093         2.330016         4.326038
 H        -2.817380         1.065308         4.637702
 H        -2.388120        -0.182088         2.740476
 H         0.547877         0.722534         3.005978
 H         0.080980        -0.858108         2.072591
