19
Iteration:  1353
 O         0.748785         0.838532         0.013030
 C        -0.215907         0.977116         1.040262
 C        -1.766551         0.953673         0.515629
 C        -1.996989         1.693161         1.846489
 C        -0.560282         2.377981         1.590480
 O        -3.013358         2.182641         2.565584
 C        -2.218173         1.712537         3.840388
 C        -1.600440         0.602512         2.930690
 C        -0.164512         0.093961         2.616056
 H         1.554349         1.247553         0.296384
 H        -1.906438         1.615308        -0.360268
 H        -2.204120        -0.043383         0.320037
 H        -0.605999         2.914383         0.571002
 H         0.036213         2.940058         2.364600
 H        -1.647619         2.648606         4.221657
 H        -2.914502         1.381400         4.784288
 H        -2.289717        -0.269214         2.856968
 H         0.626624         0.522722         3.301349
 H        -0.208918        -1.011757         2.617154
