19
Iteration:  3014
 O         0.839338         0.767084         0.186390
 C        -0.216994         1.008971         1.003367
 C        -1.667630         0.747795         0.524003
 C        -1.965582         1.657921         1.846001
 C        -0.638938         2.410831         1.536486
 O        -2.987675         2.321081         2.754222
 C        -2.361734         1.619397         3.828018
 C        -1.586511         0.683536         2.915137
 C        -0.164433         0.245025         2.386922
 H         0.626911         1.181349        -0.705767
 H        -2.031731         1.455309        -0.402915
 H        -1.930969        -0.376773         0.387559
 H        -0.851641         3.215428         0.765035
 H        -0.076526         2.742464         2.423558
 H        -1.815748         2.214580         4.588304
 H        -3.188187         1.188240         4.429174
 H        -2.017165        -0.295307         2.716589
 H         0.585027         0.828381         2.820537
 H         0.235853        -0.824934         2.257160
