19
Iteration:  4207
 O         0.913026         0.777462         0.245951
 C        -0.269453         0.982524         1.035619
 C        -1.759791         0.888809         0.485652
 C        -1.976987         1.584870         1.868917
 C        -0.757994         2.385410         1.538636
 O        -3.014003         2.263031         2.632349
 C        -2.216630         1.731693         3.900821
 C        -1.598744         0.649898         2.926865
 C        -0.137698         0.154125         2.372948
 H         0.961521         1.274142        -0.658691
 H        -1.814244         1.445489        -0.425432
 H        -2.069932        -0.166575         0.247549
 H        -0.885133         3.072371         0.646639
 H        -0.044687         3.002692         2.267932
 H        -1.587848         2.563334         4.278287
 H        -2.814099         1.383023         4.710940
 H        -2.197600        -0.233818         2.954281
 H         0.730311         0.583138         2.885647
 H        -0.118221        -0.884281         2.294426
