19
Iteration:  3390
 O         0.846164         0.753232         0.202523
 C        -0.208488         1.022594         1.025596
 C        -1.817813         0.933464         0.505533
 C        -1.944108         1.625366         1.841915
 C        -0.651709         2.407713         1.609019
 O        -3.000422         2.204443         2.646942
 C        -2.190119         1.719346         3.792524
 C        -1.604120         0.578258         2.920544
 C        -0.184288         0.218661         2.440907
 H         1.108864         1.374798        -0.430514
 H        -2.165911         1.170099        -0.487949
 H        -2.076466        -0.137818         0.342615
 H        -0.854346         3.095357         0.748688
 H        -0.416268         3.004310         2.508336
 H        -1.432424         2.532669         4.124848
 H        -2.862609         1.366851         4.619310
 H        -2.353684        -0.258119         2.906052
 H         0.660680         0.585947         3.079896
 H         0.007957        -0.906101         2.169586
