19
Iteration:  4312
 O         0.860367         0.627014         0.270771
 C        -0.203318         1.051420         1.077380
 C        -1.731381         0.813134         0.496267
 C        -2.029716         1.704985         1.859135
 C        -0.688003         2.521501         1.478482
 O        -2.962629         2.250412         2.774657
 C        -2.287421         1.602505         3.842101
 C        -1.577265         0.659699         2.799074
 C        -0.149343         0.311839         2.364345
 H         0.925198         1.167754        -0.584629
 H        -1.891572         1.252644        -0.580490
 H        -2.072387        -0.155530         0.619975
 H        -0.988861         3.063622         0.603666
 H        -0.103124         3.053417         2.181973
 H        -1.578922         2.284213         4.430058
 H        -3.206791         1.034985         4.481164
 H        -2.192825        -0.248115         2.654718
 H         0.645361         0.561982         3.067459
 H         0.038468        -0.815899         2.209033
