19
Iteration:  2619
 O         0.783927         0.710658         0.216037
 C        -0.275643         1.060781         1.019100
 C        -1.767928         0.749866         0.578439
 C        -1.968186         1.678194         1.795123
 C        -0.653104         2.432265         1.573097
 O        -3.013083         2.184754         2.692642
 C        -2.246149         1.675912         3.833067
 C        -1.541307         0.728280         2.851665
 C        -0.125531         0.271402         2.374750
 H         0.953881         1.535510        -0.361976
 H        -1.815881         1.164984        -0.369181
 H        -2.154190        -0.257382         0.648776
 H        -0.533783         3.285616         0.864495
 H        -0.075770         2.794165         2.507328
 H        -1.443414         2.349282         4.258217
 H        -2.913727         1.273141         4.629868
 H        -2.104347        -0.172491         2.715554
 H         0.806389         0.563212         2.973159
 H        -0.186137        -0.807644         2.094979
