19
Iteration:    23charge 0 multiplicity 1
 O         0.871420         0.803508         0.208348
 C        -0.106181         0.917080         1.175120
 C        -1.798690         1.232720         0.400009
 C        -1.961258         1.768191         1.787938
 C        -0.439369         2.326303         1.744642
 O        -3.017971         2.354991         2.637462
 C        -2.242107         1.557686         3.799399
 C        -1.736723         0.591604         2.760708
 C        -0.336642        -0.029162         2.394283
 H         1.429555        -0.024900         0.456347
 H        -1.631493         1.968902        -0.379000
 H        -2.407407         0.389182         0.067882
 H        -0.325773         3.040422         0.952792
 H        -0.008725         2.743167         2.674379
 H        -1.635148         2.299043         4.278934
 H        -2.992873         1.155873         4.492668
 H        -2.524725        -0.152107         2.640151
 H         0.370284        -0.028422         3.217861
 H        -0.538055        -1.071008         2.117919
