19
Iteration:  4118
 O         0.865623         0.781663         0.148480
 C        -0.226743         0.950336         1.043219
 C        -1.806649         0.839174         0.686716
 C        -1.953639         1.634291         1.873391
 C        -0.593128         2.387773         1.580443
 O        -3.016501         2.228071         2.592531
 C        -2.338046         1.696326         3.792010
 C        -1.558332         0.637962         2.897237
 C        -0.121121         0.284258         2.396907
 H         0.600381         1.222051        -0.723882
 H        -1.945609         1.391619        -0.310953
 H        -2.313439        -0.089576         0.560445
 H        -0.612445         3.162102         0.811683
 H         0.123106         2.891509         2.396681
 H        -1.762320         2.446438         4.397077
 H        -2.998468         1.224253         4.413579
 H        -2.248347        -0.225066         2.902728
 H         0.718736         0.687898         2.936085
 H        -0.035067        -0.812522         2.323560
