19
Iteration:  3524charge 0 multiplicity 1
 O         0.842127         0.706948         0.220133
 C        -0.232029         1.037988         1.041049
 C        -1.782806         0.905203         0.533555
 C        -1.936867         1.656782         1.855483
 C        -0.647523         2.386109         1.553079
 O        -3.035529         2.182912         2.585473
 C        -2.250884         1.640344         3.870966
 C        -1.545693         0.662030         2.927035
 C        -0.163603         0.295206         2.385990
 H         0.873869         1.336881        -0.501018
 H        -1.949481         1.508617        -0.310225
 H        -2.335698        -0.089106         0.585327
 H        -0.697547         3.270148         0.868438
 H         0.032939         2.640229         2.363486
 H        -1.628038         2.482498         4.220495
 H        -2.892521         1.210122         4.575571
 H        -2.285226        -0.173065         2.907513
 H         0.632458         0.535047         3.041749
 H        -0.005025        -0.749492         2.154904
