19
Iteration:   677
 O         0.854613         0.728913         0.151461
 C        -0.226755         0.957029         1.057028
 C        -1.669830         0.937406         0.415351
 C        -2.010985         1.687248         1.839651
 C        -0.688045         2.343306         1.653160
 O        -3.007608         2.400566         2.718257
 C        -2.237931         1.656654         3.818007
 C        -1.642601         0.588817         2.821157
 C        -0.231584         0.163711         2.411493
 H         1.724420         0.963924         0.609657
 H        -1.512236         1.493538        -0.559237
 H        -2.169781        -0.051771         0.153351
 H        -0.634299         3.129550         0.930039
 H        -0.192437         2.686741         2.580236
 H        -1.516592         2.390410         4.296092
 H        -2.881436         1.232238         4.640361
 H        -2.378127        -0.262692         2.815287
 H         0.596258         0.502846         3.083119
 H        -0.163981        -0.943494         2.142663
