19
Iteration:  2656
 O         0.861965         0.695892         0.047417
 C        -0.226016         0.972866         0.973216
 C        -1.806922         0.907049         0.597280
 C        -1.906482         1.626157         1.911206
 C        -0.689641         2.417635         1.370407
 O        -2.951329         2.215351         2.692559
 C        -2.382107         1.630190         3.914894
 C        -1.581474         0.582579         2.943554
 C        -0.097577         0.374218         2.500168
 H         1.678162         1.190204         0.308235
 H        -1.973679         1.601655        -0.306380
 H        -2.336658         0.025649         0.243393
 H        -1.080126         3.142456         0.614645
 H        -0.162886         2.995128         2.107376
 H        -1.710440         2.295591         4.365630
 H        -3.202736         1.497824         4.676584
 H        -2.317923        -0.262183         2.737097
 H         0.662034         0.727215         3.113851
 H         0.097307        -0.711562         2.568451
