19
Iteration:  2346charge 0 multiplicity 1
 O         0.820848         0.835119         0.122522
 C        -0.223462         1.032480         1.056290
 C        -1.721092         0.861966         0.548778
 C        -1.929190         1.660202         1.803121
 C        -0.536238         2.442733         1.642009
 O        -3.009233         2.258765         2.719585
 C        -2.346220         1.612449         3.863488
 C        -1.611628         0.594527         2.869978
 C        -0.170660         0.227933         2.361843
 H         0.442078         0.408251        -0.685260
 H        -1.740937         1.349903        -0.408263
 H        -2.237246        -0.160084         0.541476
 H        -0.663372         3.221811         0.848582
 H         0.054880         2.746378         2.548479
 H        -1.611677         2.283353         4.339749
 H        -3.150523         1.245862         4.508365
 H        -2.290134        -0.269283         2.677507
 H         0.695410         0.505223         3.048155
 H        -0.081616        -0.794321         2.166070
