19
Iteration:  1374charge 0 multiplicity 1
 O         0.744261         0.682714         0.110130
 C        -0.233716         1.001510         1.050241
 C        -1.707826         0.929902         0.527167
 C        -1.900733         1.611222         1.884809
 C        -0.590139         2.429608         1.613296
 O        -3.025787         2.204671         2.656792
 C        -2.329759         1.727288         3.801734
 C        -1.611389         0.631969         2.932384
 C        -0.147314         0.280491         2.338284
 H         1.602920         1.043869         0.511440
 H        -1.721852         1.477624        -0.426609
 H        -2.228773        -0.045550         0.420353
 H        -0.758542         3.246772         0.841285
 H        -0.068562         2.623103         2.557379
 H        -1.674074         2.555462         4.312876
 H        -2.897387         1.222789         4.742259
 H        -2.256491        -0.293094         2.881877
 H         0.809278         0.659352         2.809946
 H        -0.121075        -0.816680         2.098774
