19
Iteration:   480charge 0 multiplicity 1
 O         0.862668         0.634453         0.178674
 C        -0.208711         0.947186         1.083842
 C        -1.776977         1.034307         0.457401
 C        -1.961515         1.790315         1.801690
 C        -0.402971         2.425895         1.620892
 O        -3.090185         2.228906         2.712324
 C        -2.304260         1.604529         3.817437
 C        -1.666510         0.681120         2.794939
 C        -0.235600         0.114608         2.446174
 H         1.188995         1.483343        -0.157585
 H        -1.778459         1.758930        -0.388936
 H        -2.134900        -0.015877         0.351428
 H        -0.340437         3.222708         0.797992
 H        -0.032604         2.653594         2.708458
 H        -1.641214         2.459005         4.092843
 H        -3.027647         1.177434         4.549930
 H        -2.441465        -0.120928         2.740113
 H         0.567233         0.551878         3.072376
 H        -0.106344        -0.947918         2.509389
