19
Iteration:  3131charge 0 multiplicity 1
 O         0.871618         0.820280         0.105243
 C        -0.265313         0.977952         1.063831
 C        -1.756245         0.832714         0.487011
 C        -1.977380         1.683233         1.803462
 C        -0.600421         2.375361         1.563926
 O        -2.960967         2.217249         2.701631
 C        -2.292478         1.640252         3.845531
 C        -1.605241         0.652103         2.860978
 C        -0.147546         0.256183         2.551508
 H         0.524944         1.200966        -0.760069
 H        -1.894852         1.299850        -0.434569
 H        -2.343152        -0.139436         0.410502
 H        -0.785328         3.089327         0.688291
 H         0.010853         2.819668         2.407505
 H        -1.623087         2.310862         4.512087
 H        -3.104879         1.171309         4.441996
 H        -2.350775        -0.227973         2.865913
 H         0.637420         0.932066         3.241780
 H         0.038375        -0.852282         2.404366
