19
Iteration:  2863
 O         0.851291         0.662097         0.138002
 C        -0.142448         1.036897         1.056824
 C        -1.632500         0.897018         0.415457
 C        -2.022457         1.620687         1.872520
 C        -0.719291         2.420971         1.494466
 O        -3.072019         2.262052         2.779874
 C        -2.234750         1.700109         3.871869
 C        -1.582961         0.570806         2.919982
 C        -0.193661         0.268664         2.454753
 H         0.752322         1.286591        -0.598647
 H        -1.870072         1.562054        -0.392214
 H        -2.010007         0.038089         0.055352
 H        -0.962252         3.101041         0.619573
 H        -0.280407         3.127295         2.252157
 H        -1.438535         2.438722         4.097885
 H        -2.969691         1.307902         4.712824
 H        -2.095083        -0.436809         2.834085
 H         0.632238         0.705263         3.047853
 H         0.047530        -0.886168         2.463881
