19
Iteration:  3325
 O         0.838124         0.671549         0.208881
 C        -0.268440         1.016256         1.021916
 C        -1.741443         0.871527         0.579292
 C        -1.873694         1.673552         1.848156
 C        -0.661851         2.500364         1.545785
 O        -2.989147         2.253625         2.651786
 C        -2.286547         1.568323         3.830726
 C        -1.579516         0.591133         2.917953
 C        -0.146739         0.325363         2.356529
 H         0.772054         1.077749        -0.710148
 H        -1.916878         1.543901        -0.333798
 H        -2.147154        -0.241996         0.471778
 H        -0.798011         3.304864         0.777349
 H        -0.147773         2.999136         2.405098
 H        -1.696413         2.292478         4.533635
 H        -3.052532         1.067266         4.490328
 H        -2.350265        -0.228476         2.871281
 H         0.530703         0.782867         3.036053
 H        -0.134713        -0.743835         2.286671
