19
Iteration:  3940
 O         0.878891         0.745893         0.278455
 C        -0.225544         1.046122         1.002284
 C        -1.759930         0.888635         0.470452
 C        -1.983119         1.627118         1.858113
 C        -0.602423         2.471491         1.395809
 O        -3.067137         2.214809         2.684224
 C        -2.204527         1.663737         3.854060
 C        -1.608885         0.578407         2.964130
 C        -0.211473         0.223135         2.446721
 H         0.875904         1.225153        -0.579750
 H        -1.712240         1.568377        -0.409380
 H        -2.242981        -0.164131         0.380514
 H        -0.726904         3.166339         0.510774
 H        -0.032901         3.005220         2.250615
 H        -1.477520         2.552790         4.306502
 H        -2.799351         1.172727         4.657985
 H        -2.367967        -0.259392         3.020076
 H         0.599420         0.465777         3.104445
 H        -0.016723        -0.872400         2.263498
