19
Iteration:  1602
 O         0.770671         0.801596         0.128014
 C        -0.250720         0.976032         0.977296
 C        -1.743307         0.991412         0.455624
 C        -1.888870         1.565618         1.826056
 C        -0.615863         2.440252         1.577984
 O        -3.053479         2.166042         2.690465
 C        -2.283059         1.723672         3.818922
 C        -1.560348         0.596085         2.982527
 C        -0.108860         0.261643         2.474991
 H         1.049790        -0.161124         0.087570
 H        -1.940024         1.805681        -0.212637
 H        -2.396056         0.151244         0.169591
 H        -0.756906         3.179688         0.691788
 H        -0.060327         2.738123         2.484094
 H        -1.646311         2.474916         4.258536
 H        -3.000106         1.433346         4.597169
 H        -2.165986        -0.328527         2.919392
 H         0.801128         0.597095         2.990653
 H        -0.011772        -0.808190         2.356338
