19
Iteration:    57charge 0 multiplicity 1
 O         0.941603         0.758993         0.353726
 C        -0.201892         1.052598         1.052811
 C        -1.701748         1.087602         0.419240
 C        -1.939654         1.675782         1.899048
 C        -0.460937         2.316210         1.718608
 O        -2.906595         2.452534         2.616755
 C        -2.308407         1.547048         3.840303
 C        -1.770341         0.538488         2.784296
 C        -0.425071         0.099254         2.267400
 H         0.841466         0.214708        -0.500636
 H        -1.907332         1.756501        -0.410730
 H        -2.211755         0.136370         0.177062
 H        -0.507158         3.100770         1.088460
 H         0.087193         2.618129         2.655012
 H        -1.630765         2.177780         4.420913
 H        -3.066505         1.028410         4.403964
 H        -2.545469        -0.253236         2.875526
 H         0.406272         0.252566         2.857277
 H        -0.383012        -0.988244         1.932140
