19
Iteration:   456
 O         0.873245         0.581640         0.295268
 C        -0.241019         1.012664         1.057725
 C        -1.688936         1.010044         0.452950
 C        -1.900545         1.714829         1.896690
 C        -0.580091         2.475824         1.603232
 O        -2.914557         2.345639         2.639593
 C        -2.365878         1.517156         3.876858
 C        -1.690303         0.584556         2.831737
 C        -0.243886         0.237649         2.342858
 H         0.871103         1.166066        -0.547908
 H        -1.732521         1.751109        -0.373732
 H        -2.190371        -0.004213         0.311379
 H        -1.000026         3.242033         0.790306
 H         0.058927         2.854731         2.423765
 H        -1.690456         2.248182         4.346047
 H        -3.207979         1.129987         4.444666
 H        -2.415565        -0.220484         2.607740
 H         0.628602         0.369023         3.037277
 H        -0.187831        -0.789820         2.067455
