19
Iteration:   681charge 0 multiplicity 1
 O         0.869574         0.706542         0.136383
 C        -0.221684         0.960019         1.045755
 C        -1.645090         0.914178         0.419675
 C        -2.052466         1.721067         1.819671
 C        -0.717669         2.390251         1.673760
 O        -2.993663         2.385195         2.702783
 C        -2.221814         1.654740         3.836135
 C        -1.626028         0.565465         2.842746
 C        -0.238068         0.155108         2.408147
 H         1.649702         0.914253         0.614878
 H        -1.532064         1.526052        -0.451658
 H        -2.151428         0.027252         0.153244
 H        -0.627315         3.161343         0.904331
 H        -0.243035         2.854486         2.721280
 H        -1.538127         2.375252         4.299374
 H        -2.899385         1.254594         4.588675
 H        -2.369681        -0.200871         2.815212
 H         0.584535         0.408112         3.024732
 H        -0.280461        -0.897728         2.148513
