19
Iteration:   256charge 0 multiplicity 1
 O         0.751100         0.665360         0.239403
 C        -0.210117         0.994038         1.142846
 C        -1.736822         1.094708         0.453956
 C        -1.887894         1.752714         1.838626
 C        -0.420554         2.421167         1.685463
 O        -2.962353         2.223473         2.593458
 C        -2.401324         1.658269         3.838135
 C        -1.700204         0.590507         2.794576
 C        -0.206524         0.048376         2.349610
 H         1.107047         1.514954        -0.002091
 H        -1.453878         1.753160        -0.393959
 H        -2.361265         0.216727         0.374022
 H        -0.163164         3.183462         0.859313
 H        -0.072959         2.656932         2.657048
 H        -1.609713         2.209833         4.327185
 H        -3.126299         1.298672         4.617663
 H        -2.573248        -0.080512         2.546791
 H         0.370658         0.558433         3.057336
 H        -0.040031        -1.038866         2.192290
