19
Iteration:   773
 O         0.669682         0.725229         0.123329
 C        -0.173795         1.063351         1.131177
 C        -1.624385         0.877514         0.531526
 C        -1.841123         1.727441         1.850489
 C        -0.555069         2.447909         1.596105
 O        -2.934484         2.413514         2.661611
 C        -2.372750         1.546140         3.829220
 C        -1.660961         0.483303         2.915751
 C        -0.245730         0.159183         2.345899
 H         1.632950         0.975340         0.418982
 H        -1.773970         1.508557        -0.381872
 H        -2.018851        -0.160862         0.356462
 H        -0.730855         3.150442         0.566374
 H        -0.173720         2.983292         2.390939
 H        -1.818251         2.263149         4.305994
 H        -3.144732         1.211193         4.512519
 H        -2.366266        -0.287126         2.523145
 H         0.453400         0.567588         3.112851
 H        -0.200561        -0.867838         2.035551
