19
Iteration:  4079
 O         0.866139         0.731236         0.244732
 C        -0.197615         1.023465         1.124154
 C        -1.686329         0.896381         0.493134
 C        -2.065046         1.541699         1.847014
 C        -0.708968         2.428823         1.496769
 O        -2.997092         2.226370         2.710135
 C        -2.163785         1.726195         3.783248
 C        -1.602054         0.630487         2.911642
 C        -0.191452         0.243200         2.338520
 H         0.642054         1.169042        -0.535209
 H        -1.667933         1.586076        -0.271295
 H        -2.117872        -0.125458         0.249499
 H        -0.908905         3.055955         0.582772
 H        -0.241417         2.903094         2.280393
 H        -1.613411         2.578786         4.204084
 H        -2.874289         1.358881         4.701837
 H        -2.285383        -0.220819         2.886219
 H         0.548317         0.528450         3.172055
 H        -0.061303        -0.824371         2.324230
