19
Iteration:  3104charge 0 multiplicity 1
 O         0.840810         0.771515         0.245289
 C        -0.281414         1.045471         1.057895
 C        -1.730972         0.842152         0.540540
 C        -2.001372         1.650664         1.873797
 C        -0.688722         2.474699         1.576000
 O        -2.978284         2.258376         2.586502
 C        -2.213006         1.662706         3.820859
 C        -1.575162         0.529385         2.939288
 C        -0.132020         0.208989         2.390788
 H         0.739972         1.319724        -0.612911
 H        -1.983489         1.503576        -0.451137
 H        -2.156898        -0.137491         0.445031
 H        -0.955600         3.007074         0.689687
 H        -0.155517         3.026455         2.362513
 H        -1.405673         2.199591         4.209205
 H        -2.999710         1.469068         4.609931
 H        -2.312138        -0.289560         2.985140
 H         0.790471         0.485025         2.857241
 H         0.050355        -0.813411         2.014471
