19
Iteration:  1388charge 0 multiplicity 1
 O         0.793463         0.609830         0.135561
 C        -0.237245         1.078686         0.992627
 C        -1.705348         0.889063         0.509052
 C        -1.988436         1.702512         1.818660
 C        -0.680770         2.470513         1.648878
 O        -2.986633         2.223203         2.638595
 C        -2.275540         1.643718         3.962990
 C        -1.543382         0.658674         2.854561
 C        -0.169004         0.246945         2.330750
 H         1.624585         0.735316         0.552787
 H        -1.977535         1.405095        -0.405508
 H        -1.993891        -0.161045         0.457765
 H        -0.768579         3.133382         0.824418
 H        -0.116875         2.982977         2.545026
 H        -1.784807         2.526009         4.484656
 H        -3.162236         1.241631         4.523306
 H        -2.245166        -0.127787         2.863624
 H         0.636672         0.645496         2.983043
 H         0.010329        -0.775579         2.167836
