19
Iteration:  2099charge 0 multiplicity 1
 O         0.841732         0.947567         0.087543
 C        -0.207263         1.006896         1.015089
 C        -1.766504         0.880207         0.529640
 C        -1.952379         1.696206         1.861617
 C        -0.578947         2.397997         1.638046
 O        -3.077669         2.135659         2.701648
 C        -2.278520         1.709451         3.850856
 C        -1.551282         0.656777         2.900243
 C        -0.194535         0.137354         2.356834
 H         1.046643        -0.013662        -0.081922
 H        -1.837991         1.352028        -0.403523
 H        -2.281821        -0.043254         0.622643
 H        -0.524943         3.167525         0.844702
 H         0.153111         2.563380         2.501491
 H        -1.679174         2.461642         4.312571
 H        -3.021345         1.229857         4.541525
 H        -2.255699        -0.196858         2.779709
 H         0.596695         0.551741         2.953056
 H        -0.131779        -0.992886         2.273322
