19
Iteration:  2585
 O         0.816630         0.932707         0.083143
 C        -0.249872         1.004555         1.047768
 C        -1.703219         0.901765         0.450562
 C        -1.968859         1.507065         1.856412
 C        -0.669968         2.343498         1.521400
 O        -2.945682         2.225037         2.658922
 C        -2.238235         1.739436         3.820970
 C        -1.642962         0.591056         2.986457
 C        -0.212889         0.189426         2.615500
 H         0.686244         0.370956        -0.723448
 H        -1.855140         1.680168        -0.240876
 H        -2.236458         0.009091         0.078601
 H        -0.877392         2.989547         0.633379
 H         0.114878         2.829377         2.258452
 H        -1.314089         2.398266         4.068841
 H        -2.827917         1.647068         4.715464
 H        -2.223012        -0.294707         2.938499
 H         0.739839         0.608677         3.160222
 H         0.025890        -0.862205         2.453846
