19
Iteration:  1999charge 0 multiplicity 1
 O         0.938761         0.984980         0.133105
 C        -0.243189         1.045621         1.013667
 C        -1.844078         0.871404         0.540020
 C        -1.950738         1.534627         1.858152
 C        -0.680116         2.372216         1.536516
 O        -2.930320         2.286377         2.623992
 C        -2.308730         1.660696         3.829131
 C        -1.580992         0.556298         2.984932
 C        -0.155129         0.136477         2.441932
 H         0.815187         0.133514        -0.373249
 H        -2.148685         1.618125        -0.173882
 H        -2.548137         0.116265         0.411428
 H        -0.853477         3.305602         0.902007
 H        -0.029727         2.748373         2.394327
 H        -1.664887         2.468681         4.164198
 H        -3.070384         1.293569         4.592333
 H        -2.179769        -0.380604         2.899329
 H         0.569590         0.346286         3.256040
 H         0.077795        -0.891783         2.160515
