19
Iteration:  4128
 O         0.820420         0.739707         0.160186
 C        -0.237926         1.025287         1.056834
 C        -1.783252         0.826525         0.523826
 C        -1.926112         1.662537         1.846214
 C        -0.589919         2.416352         1.541331
 O        -3.000278         2.243949         2.608507
 C        -2.369530         1.698778         3.872569
 C        -1.550753         0.634988         2.947223
 C        -0.098554         0.220791         2.425168
 H         0.684806         1.313481        -0.701419
 H        -1.909059         1.480040        -0.465663
 H        -2.218903        -0.128571         0.661642
 H        -0.943640         3.010712         0.698831
 H         0.036303         2.852646         2.571135
 H        -1.927690         2.492691         4.520141
 H        -3.128349         1.194503         4.396997
 H        -2.052107        -0.360408         3.057707
 H         0.721843         0.634727         2.952567
 H         0.227477        -0.834180         2.252000
