19
Iteration:  2508
 O         0.770917         0.689700         0.152288
 C        -0.249734         0.958436         1.048729
 C        -1.717161         0.957940         0.451524
 C        -2.017602         1.660313         1.832640
 C        -0.620115         2.391884         1.534132
 O        -3.009196         2.284861         2.751664
 C        -2.269108         1.602456         3.843910
 C        -1.615204         0.579825         2.860168
 C        -0.095989         0.300937         2.478987
 H         1.019692         1.489132        -0.279120
 H        -1.593462         1.664342        -0.331300
 H        -2.070775         0.036585         0.001700
 H        -0.723176         3.018933         0.600097
 H        -0.111356         2.755333         2.492785
 H        -1.478417         2.261221         4.272469
 H        -2.905480         1.164514         4.565066
 H        -2.172614        -0.338446         2.808615
 H         0.685466         0.924938         3.079305
 H         0.112135        -0.777768         2.530512
