19
Iteration:   445
 O         0.893269         0.634915         0.320244
 C        -0.280824         1.064846         0.988396
 C        -1.705752         0.996352         0.495804
 C        -1.887544         1.725409         1.862708
 C        -0.647192         2.460782         1.611099
 O        -2.828207         2.374937         2.629989
 C        -2.362648         1.500823         3.835460
 C        -1.658366         0.608410         2.836753
 C        -0.289156         0.087981         2.396096
 H         0.768770         0.927931        -0.636173
 H        -1.982642         1.675989        -0.349802
 H        -1.982978        -0.042108         0.092459
 H        -0.725870         3.350665         0.763155
 H        -0.239471         3.053350         2.454231
 H        -1.779851         2.088601         4.583925
 H        -3.178896         1.100104         4.433328
 H        -2.375448        -0.218377         2.660304
 H         0.525944         0.728952         2.831510
 H        -0.144461        -0.940858         2.455846
