19
Iteration:  2684charge 0 multiplicity 1
 O         0.584045         0.819972         0.081996
 C        -0.280055         0.979323         1.108361
 C        -1.654905         0.724678         0.591917
 C        -1.978409         1.675803         1.759345
 C        -0.607527         2.414850         1.572943
 O        -2.999931         2.259132         2.646253
 C        -2.184092         1.595516         3.806639
 C        -1.542363         0.680220         2.828704
 C        -0.111333         0.334446         2.472583
 H         1.460465         0.687158         0.384237
 H        -1.675322         1.096787        -0.395850
 H        -2.012704        -0.337577         0.543804
 H        -0.499431         3.163389         0.787929
 H        -0.217734         2.942624         2.509301
 H        -1.670062         2.406552         4.517252
 H        -2.926479         1.201890         4.526672
 H        -2.221796        -0.143867         2.745524
 H         0.659927         0.864751         3.164993
 H        -0.011405        -0.782854         2.668032
