19
Iteration:  3824
 O         0.889169         0.662408         0.205332
 C        -0.262986         0.958585         1.036731
 C        -1.747580         0.932558         0.528272
 C        -1.988288         1.662774         1.892729
 C        -0.695798         2.503976         1.493217
 O        -3.013686         2.261125         2.614108
 C        -2.234901         1.565088         3.857299
 C        -1.576246         0.605050         2.881379
 C        -0.179021         0.308735         2.464896
 H         0.850111         0.999336        -0.670910
 H        -1.861580         1.723768        -0.294194
 H        -2.034273        -0.038367         0.308725
 H        -0.817737         3.218813         0.657358
 H        -0.156896         3.009679         2.345686
 H        -1.545570         2.264796         4.218870
 H        -2.842161         1.141160         4.693693
 H        -2.227402        -0.286864         2.825008
 H         0.667729         0.770313         3.054705
 H         0.114515        -0.806431         2.698248
