19
Iteration:  4612charge 0 multiplicity 1
 O         0.797839         0.644160         0.143432
 C        -0.247875         1.044515         1.049130
 C        -1.688266         0.948309         0.480382
 C        -1.990471         1.556983         1.846086
 C        -0.643540         2.465984         1.611958
 O        -3.051797         2.159008         2.669211
 C        -2.281064         1.667927         3.843929
 C        -1.565580         0.659041         2.878993
 C        -0.109164         0.340963         2.422511
 H         0.727528         1.196190        -0.693691
 H        -1.731194         1.638065        -0.265915
 H        -1.878200        -0.155146         0.458486
 H        -0.744810         3.304452         0.947891
 H        -0.142647         2.805151         2.612499
 H        -1.509000         2.491368         4.201522
 H        -2.913804         1.204398         4.717398
 H        -2.189204        -0.234409         2.935364
 H         0.752393         0.674912         2.947394
 H        -0.062648        -0.769319         2.340733
