19
Iteration:   792charge 0 multiplicity 1
 O         0.840526         0.697131         0.143423
 C        -0.224848         0.981244         1.072740
 C        -1.744416         0.987648         0.539105
 C        -1.956091         1.728632         1.847089
 C        -0.542065         2.467870         1.541554
 O        -2.951544         2.241395         2.707949
 C        -2.322174         1.596454         3.839915
 C        -1.671357         0.681580         2.796345
 C        -0.266531         0.126048         2.416390
 H         1.673922         1.180619         0.478038
 H        -1.739733         1.337740        -0.446067
 H        -2.273320         0.074113         0.529416
 H        -0.556580         3.312168         0.691099
 H         0.065384         2.890988         2.439702
 H        -1.648946         2.257731         4.473205
 H        -2.944705         1.043009         4.557459
 H        -2.332268        -0.114832         2.546179
 H         0.635698         0.301153         3.002536
 H        -0.438639        -0.914264         2.266883
