19
Iteration:  1847charge 0 multiplicity 1
 O         0.810400         0.857125         0.176345
 C        -0.221781         1.057910         1.086135
 C        -1.819936         0.961081         0.505941
 C        -1.950755         1.565896         1.840398
 C        -0.634430         2.489779         1.682969
 O        -2.970991         2.110677         2.587939
 C        -2.247903         1.699348         3.781474
 C        -1.535160         0.622893         2.950275
 C        -0.166405         0.156618         2.360875
 H         0.588766        -0.008428        -0.144594
 H        -1.899458         1.759706        -0.267431
 H        -2.469881         0.109309         0.351536
 H        -0.984893         3.101694         0.824842
 H         0.126494         2.874661         2.397950
 H        -1.580927         2.542163         4.054348
 H        -2.942274         1.430438         4.662715
 H        -2.060577        -0.366134         3.008651
 H         0.704456         0.592112         2.800978
 H        -0.054652        -0.941720         2.385709
