19
Iteration:  1385charge 0 multiplicity 1
 O         0.783177         0.616446         0.139470
 C        -0.261454         1.062649         0.996053
 C        -1.691102         0.896307         0.521415
 C        -1.994856         1.709715         1.824824
 C        -0.663680         2.433021         1.679323
 O        -2.966049         2.201373         2.624118
 C        -2.278164         1.679772         3.964957
 C        -1.582418         0.643518         2.867593
 C        -0.152276         0.284643         2.286273
 H         1.671245         0.794802         0.513589
 H        -1.904906         1.446249        -0.406026
 H        -1.997707        -0.167964         0.504106
 H        -0.673729         3.212834         0.835834
 H        -0.183178         3.007589         2.428110
 H        -1.828650         2.645731         4.427515
 H        -3.154694         1.134263         4.577149
 H        -2.279522        -0.248869         2.854085
 H         0.703898         0.617140         2.952193
 H        -0.005082        -0.827332         2.205035
