19
Iteration:   174
 O         0.962999         0.846093         0.227536
 C        -0.225210         0.965739         1.082999
 C        -1.740940         1.036203         0.531628
 C        -1.908127         1.777801         1.863051
 C        -0.515376         2.383455         1.718529
 O        -2.927577         2.355189         2.638034
 C        -2.298105         1.597560         3.810856
 C        -1.801003         0.536868         2.691245
 C        -0.355333         0.043477         2.358916
 H         1.010598        -0.163438         0.031145
 H        -1.799069         1.401247        -0.473118
 H        -2.341959         0.120269         0.432373
 H        -0.545993         3.136749         0.907589
 H         0.066073         2.812852         2.564648
 H        -1.459059         2.120104         4.358524
 H        -3.041574         1.271267         4.534848
 H        -2.629547        -0.121570         2.485123
 H         0.431971         0.369733         3.143438
 H        -0.185554        -1.028285         2.279805
