19
Iteration:  1970charge 0 multiplicity 1
 O         0.771534         0.942739         0.141124
 C        -0.261536         1.000168         1.095772
 C        -1.622121         0.875032         0.495002
 C        -1.964211         1.654834         1.818528
 C        -0.621766         2.422234         1.630283
 O        -3.055794         2.126752         2.668338
 C        -2.204420         1.686889         3.840385
 C        -1.600488         0.648183         2.901194
 C        -0.207337         0.158831         2.361402
 H         0.811832         0.038322        -0.113314
 H        -1.773924         1.512222        -0.383128
 H        -2.238517        -0.077329         0.358728
 H        -0.542073         3.132525         0.807699
 H        -0.039040         2.724097         2.547867
 H        -1.526275         2.583224         4.078574
 H        -2.684392         1.486537         4.859412
 H        -2.309066        -0.222217         2.768622
 H         0.525902         0.523923         3.022047
 H         0.039681        -0.942390         2.191543
