19
Iteration:   755charge 0 multiplicity 1
 O         0.734827         0.768977         0.016973
 C        -0.221783         0.980429         1.062456
 C        -1.684606         0.969183         0.507505
 C        -1.961199         1.632375         1.830606
 C        -0.605549         2.390154         1.661657
 O        -2.847307         2.358833         2.643088
 C        -2.393445         1.591088         3.810489
 C        -1.683089         0.589998         2.864349
 C        -0.168971         0.208082         2.523957
 H         1.643736         0.641483         0.455696
 H        -1.685997         1.661161        -0.382417
 H        -2.152846        -0.031501         0.332361
 H        -0.752018         3.101668         0.971654
 H         0.045081         2.713662         2.528884
 H        -1.651919         2.127527         4.517718
 H        -3.357672         1.244488         4.264862
 H        -2.317668        -0.327185         2.899337
 H         0.621751         0.645614         3.168624
 H        -0.033756        -0.932516         2.341335
