19
Iteration:   756charge 0 multiplicity 1
 O         0.730084         0.768178         0.020085
 C        -0.220396         0.982309         1.066051
 C        -1.679783         0.967437         0.507936
 C        -1.962724         1.622271         1.839090
 C        -0.605506         2.397228         1.654677
 O        -2.846414         2.368566         2.640148
 C        -2.396932         1.588679         3.808384
 C        -1.684817         0.581309         2.867016
 C        -0.172628         0.209573         2.517462
 H         1.650044         0.646389         0.435917
 H        -1.670268         1.640853        -0.365897
 H        -2.129161        -0.018387         0.343667
 H        -0.735495         3.111309         0.949569
 H         0.043990         2.750885         2.565459
 H        -1.635001         2.120001         4.508894
 H        -3.344958         1.222548         4.280177
 H        -2.313829        -0.317967         2.889380
 H         0.630941         0.614918         3.145189
 H        -0.027085        -0.918944         2.347776
