19
Iteration:  2421
 O         0.855016         0.890809         0.217301
 C        -0.252017         1.000276         1.021263
 C        -1.849421         0.890305         0.516362
 C        -1.999626         1.660248         1.836880
 C        -0.631897         2.393793         1.666641
 O        -2.950211         2.283985         2.670296
 C        -2.150630         1.615426         3.770715
 C        -1.712864         0.544003         2.823977
 C        -0.187275         0.249335         2.347349
 H         1.282427         0.044146         0.366688
 H        -1.786979         1.379236        -0.407279
 H        -2.284680        -0.095922         0.579888
 H        -0.693892         3.296699         0.928436
 H        -0.010416         2.544385         2.673197
 H        -1.317947         2.258995         4.015393
 H        -2.710576         1.321127         4.621095
 H        -2.346032        -0.354037         2.847735
 H         0.723568         0.637694         2.968954
 H         0.004443        -0.839314         2.202868
