19
Iteration:  4812charge 0 multiplicity 1
 O         0.944715         0.825752         0.217182
 C        -0.179385         1.023311         0.983743
 C        -1.878398         0.820314         0.549690
 C        -2.005647         1.617116         1.804940
 C        -0.625102         2.401389         1.436697
 O        -2.987837         2.281607         2.769481
 C        -2.369132         1.610212         3.859344
 C        -1.579790         0.651353         2.918515
 C        -0.079674         0.299564         2.411355
 H         0.739059         0.430504        -0.594032
 H        -2.086560         1.083081        -0.480603
 H        -2.374133        -0.114641         0.563442
 H        -0.809508         3.142328         0.520353
 H         0.030833         2.880575         2.295231
 H        -1.761181         2.270272         4.472832
 H        -3.005706         1.102467         4.509959
 H        -2.216540        -0.226139         2.806129
 H         0.751431         0.635509         3.023438
 H        -0.027998        -0.773124         2.332956
