19
Iteration:  1828charge 0 multiplicity 1
 O         0.886171         0.889019         0.163988
 C        -0.243000         0.993582         0.994617
 C        -1.773193         0.935665         0.467254
 C        -2.041189         1.637794         1.819652
 C        -0.663386         2.356327         1.602261
 O        -3.062775         2.168953         2.689391
 C        -2.171383         1.736472         3.870235
 C        -1.564575         0.651234         2.927924
 C        -0.154535         0.210385         2.408321
 H         0.988275         0.058342        -0.254548
 H        -1.844213         1.657998        -0.395236
 H        -2.084143        -0.188974         0.333493
 H        -0.705175         3.180525         0.891693
 H        -0.270899         2.418007         2.579358
 H        -1.518122         2.456830         4.279374
 H        -2.853329         1.365395         4.621339
 H        -2.241416        -0.269158         2.901636
 H         0.703552         0.286793         3.079028
 H        -0.077553        -0.921149         2.028057
