19
Iteration:  4955
 O         0.815865         0.864853         0.183095
 C        -0.244356         0.971797         1.057211
 C        -1.840113         0.886487         0.548412
 C        -1.937454         1.669624         1.814924
 C        -0.607917         2.423257         1.450694
 O        -3.075907         2.136299         2.718844
 C        -2.201736         1.663336         3.782914
 C        -1.548837         0.559310         2.862664
 C        -0.100278         0.312847         2.547219
 H         0.746519        -0.028086        -0.171934
 H        -1.861663         1.449242        -0.480276
 H        -2.470165         0.008536         0.371865
 H        -0.648041         2.944444         0.377948
 H         0.049173         2.875497         2.312147
 H        -1.590081         2.481099         4.146232
 H        -2.859028         1.431046         4.576309
 H        -2.340023        -0.146226         2.696163
 H         0.447719         0.994420         3.237705
 H         0.391151        -0.648740         2.539716
