19
Iteration:  1506charge 0 multiplicity 1
 O         0.902007         0.877727         0.201119
 C        -0.221214         0.963411         1.080284
 C        -1.913769         0.876240         0.518842
 C        -1.980828         1.678252         1.817656
 C        -0.580691         2.381431         1.578510
 O        -3.062584         2.211710         2.666794
 C        -2.176917         1.724200         3.827443
 C        -1.617227         0.620894         2.799293
 C        -0.136826         0.193176         2.400155
 H         1.183898        -0.103254         0.256046
 H        -2.068366         1.508751        -0.360068
 H        -2.552885        -0.018252         0.447159
 H        -0.707484         2.978616         0.739492
 H        -0.151680         2.762887         2.424560
 H        -1.459779         2.512319         4.144540
 H        -2.725656         1.347986         4.714403
 H        -2.256442        -0.235340         2.859224
 H         0.628770         0.624535         3.138587
 H         0.145375        -0.833891         2.280818
