19
Iteration:  1397
 O         0.808791         0.625224         0.119832
 C        -0.194061         1.070039         1.023711
 C        -1.737505         0.888501         0.484245
 C        -1.932948         1.659840         1.841329
 C        -0.688869         2.545356         1.538820
 O        -3.033231         2.274987         2.700974
 C        -2.276578         1.585583         3.864702
 C        -1.531589         0.690710         2.874195
 C        -0.185622         0.207406         2.432730
 H         1.600227         0.617178         0.640295
 H        -1.984099         1.410874        -0.445172
 H        -2.113285        -0.149436         0.430531
 H        -0.910462         3.295456         0.767548
 H        -0.166931         2.818369         2.436849
 H        -1.577897         2.236568         4.525676
 H        -3.130059         1.189564         4.574326
 H        -2.235881        -0.157831         2.767932
 H         0.661459         0.627111         3.054630
 H        -0.050450        -0.840201         2.192432
