19
Iteration:  2132
 O         0.807659         1.020449         0.195407
 C        -0.226500         1.074964         1.097966
 C        -1.726814         0.846804         0.483717
 C        -1.942955         1.614149         1.812079
 C        -0.710070         2.386179         1.527200
 O        -2.886415         2.260652         2.673767
 C        -2.184500         1.660574         3.880379
 C        -1.634679         0.484430         2.897461
 C        -0.248765         0.138789         2.385635
 H         0.515759         0.211576        -0.326258
 H        -1.714262         1.333292        -0.439630
 H        -2.084104        -0.137730         0.330858
 H        -0.879243         3.044790         0.662530
 H         0.026761         2.940201         2.220214
 H        -1.544025         2.239455         4.452930
 H        -3.025114         1.347598         4.546670
 H        -2.410563        -0.293236         3.010030
 H         0.447200         0.563223         3.078046
 H        -0.037613        -0.986032         2.347506
