19
Iteration:  4910charge 0 multiplicity 1
 O         0.900789         0.907914         0.120516
 C        -0.160601         0.988958         1.062371
 C        -1.755027         0.786040         0.527445
 C        -1.977027         1.506306         1.838049
 C        -0.760552         2.456802         1.458026
 O        -2.970648         2.326021         2.713019
 C        -2.354150         1.760025         3.878456
 C        -1.603279         0.608648         2.972587
 C        -0.072612         0.145809         2.358742
 H         1.042650        -0.015302         0.013888
 H        -1.886701         1.443049        -0.414486
 H        -2.170384        -0.215051         0.399925
 H        -1.213698         3.161607         0.661408
 H        -0.340034         2.987058         2.402287
 H        -1.759970         2.464211         4.414697
 H        -3.030413         1.372121         4.602697
 H        -2.129165        -0.292527         3.183964
 H         0.801578         0.476861         2.923714
 H        -0.053488        -0.926632         2.126617
