19
Iteration:  3896
 O         0.832797         0.820106         0.186610
 C        -0.264414         0.999371         1.093852
 C        -1.774308         0.826042         0.494023
 C        -2.007941         1.568571         1.761960
 C        -0.631581         2.380215         1.555131
 O        -2.970389         2.282900         2.637722
 C        -2.235964         1.694197         3.815327
 C        -1.559948         0.621669         2.923815
 C        -0.154154         0.187299         2.470835
 H         0.875499         1.706237        -0.248280
 H        -2.056945         1.540551        -0.273226
 H        -2.116880        -0.294346         0.481219
 H        -0.680785         3.104066         0.696638
 H         0.040592         2.723708         2.403626
 H        -1.570108         2.588057         4.295206
 H        -3.137468         1.416427         4.441311
 H        -2.293353        -0.225570         3.057259
 H         0.692524         0.619504         2.996722
 H        -0.072184        -0.940227         2.380682
