19
Iteration:   903
 O         0.900181         0.626803         0.234962
 C        -0.225431         1.013893         1.084436
 C        -1.894713         1.060692         0.461097
 C        -1.936108         1.643268         1.831082
 C        -0.637631         2.430544         1.595955
 O        -2.873520         2.321487         2.646609
 C        -2.319366         1.592062         3.820863
 C        -1.615685         0.512870         2.869428
 C        -0.186735         0.218225         2.399786
 H         0.984243         1.289968        -0.481620
 H        -1.890910         1.881359        -0.242578
 H        -2.584644         0.276391         0.180941
 H        -0.689707         3.203928         0.833526
 H        -0.168899         2.809162         2.432109
 H        -1.519368         2.101824         4.479913
 H        -3.167055         1.258255         4.480597
 H        -2.323739        -0.314139         2.766092
 H         0.545828         0.666159         3.103509
 H         0.120498        -0.792619         2.393292
