19
Iteration:  1713
 O         0.734840         0.837252         0.127666
 C        -0.266461         1.037161         1.061572
 C        -1.739817         0.840264         0.529802
 C        -1.911498         1.688202         1.835057
 C        -0.578531         2.516312         1.645601
 O        -3.083496         2.203369         2.642771
 C        -2.284925         1.604170         3.813689
 C        -1.523788         0.637657         2.882369
 C        -0.125329         0.170541         2.444989
 H         0.763702        -0.087881        -0.023732
 H        -1.599847         1.477346        -0.272368
 H        -2.023418        -0.118579         0.256770
 H        -0.670101         3.163875         0.772524
 H        -0.077200         2.952195         2.526126
 H        -1.576188         2.411945         4.012424
 H        -2.695787         1.271365         4.775879
 H        -2.250483        -0.099320         2.649903
 H         0.799408         0.487756         2.992039
 H         0.002183        -0.815131         2.227709
