19
Iteration:  1228
 O         0.696518         0.748453         0.007149
 C        -0.255789         1.029128         1.078653
 C        -1.706458         0.816624         0.522227
 C        -1.918725         1.535903         1.909285
 C        -0.635206         2.478049         1.604684
 O        -2.949823         2.317959         2.587262
 C        -2.367577         1.715618         3.872792
 C        -1.543180         0.583174         2.957460
 C        -0.112323         0.239325         2.442496
 H         1.601825         0.696143         0.273747
 H        -1.703314         1.572072        -0.261100
 H        -2.101392        -0.144162         0.175887
 H        -0.898097         3.119207         0.847152
 H         0.005024         2.864220         2.434918
 H        -1.905944         2.621369         4.507974
 H        -3.163796         1.172781         4.435116
 H        -2.155977        -0.305277         2.917008
 H         0.724197         0.601456         3.089023
 H         0.053962        -0.813900         2.212103
