19
Iteration:  3590charge 0 multiplicity 1
 O         0.869521         0.787885         0.296507
 C        -0.233927         1.004152         1.016684
 C        -1.861271         0.840733         0.483554
 C        -1.969891         1.650367         1.790701
 C        -0.677768         2.420830         1.547497
 O        -2.983873         2.216723         2.670882
 C        -2.220669         1.710657         3.862186
 C        -1.596524         0.625750         2.902599
 C        -0.152507         0.205597         2.364647
 H         1.074707         1.348469        -0.513762
 H        -1.881172         1.317541        -0.419824
 H        -2.306403        -0.166644         0.611679
 H        -0.690461         3.181371         0.758137
 H         0.059114         2.808116         2.260910
 H        -1.590973         2.442506         4.363682
 H        -2.862924         1.354155         4.553630
 H        -2.276724        -0.208788         2.780371
 H         0.674402         0.516789         2.988472
 H         0.116307        -0.946697         2.329651
