19
Iteration:  3509
 O         0.841647         0.688635         0.223725
 C        -0.280210         0.974764         1.019740
 C        -1.805732         0.940198         0.623414
 C        -1.926302         1.686321         1.867635
 C        -0.555474         2.556119         1.559537
 O        -3.038388         2.145560         2.651576
 C        -2.306903         1.725832         3.803479
 C        -1.569118         0.556029         2.853958
 C        -0.083416         0.187804         2.407004
 H         0.853365         1.239632        -0.635373
 H        -1.957134         1.422079        -0.390345
 H        -2.260010         0.030789         0.403011
 H        -0.900202         3.134893         0.715701
 H        -0.163504         3.102928         2.409124
 H        -1.758499         2.512350         4.257776
 H        -3.064156         1.341194         4.527149
 H        -2.189944        -0.328019         2.695436
 H         0.732362         0.870615         2.824258
 H         0.122137        -0.988206         2.379163
