19
Iteration:  1128charge 0 multiplicity 1
 O         0.945137         0.818875         0.188050
 C        -0.249624         0.953786         1.039274
 C        -1.867842         0.886250         0.459044
 C        -1.964587         1.683098         1.873381
 C        -0.617427         2.384607         1.583681
 O        -2.992945         2.289770         2.660364
 C        -2.303251         1.652205         3.864923
 C        -1.580512         0.657287         2.926214
 C        -0.123243         0.196039         2.373541
 H         0.595045         0.233230        -0.543205
 H        -2.035634         1.438349        -0.470415
 H        -2.351033        -0.090174         0.525879
 H        -0.722090         3.164102         0.918723
 H        -0.042972         2.712428         2.441208
 H        -1.642673         2.503566         4.273941
 H        -2.996417         1.215419         4.536498
 H        -2.255416        -0.184672         2.897956
 H         0.759610         0.410883         2.996889
 H        -0.121154        -0.873735         2.210493
