19
Iteration:   530
 O         0.908648         0.734150         0.165993
 C        -0.194109         1.041946         1.050773
 C        -1.723287         0.859020         0.432469
 C        -1.945586         1.602600         1.831962
 C        -0.638683         2.374112         1.697948
 O        -2.937159         2.453357         2.675915
 C        -2.351549         1.758613         3.894367
 C        -1.700766         0.529482         2.838581
 C        -0.232793         0.085153         2.331526
 H         1.562696         1.414027         0.179765
 H        -1.766266         1.458526        -0.482593
 H        -2.263658        -0.110811         0.411277
 H        -0.876354         3.153025         0.909927
 H        -0.099161         2.695365         2.479759
 H        -1.528244         2.331151         4.362755
 H        -3.130394         1.462804         4.582104
 H        -2.387999        -0.322621         2.893520
 H         0.651794         0.112663         3.039457
 H        -0.324740        -0.981984         2.020883
