19
Iteration:  1689charge 0 multiplicity 1
 O         0.920623         0.932075         0.135232
 C        -0.271344         1.041576         0.946694
 C        -1.793802         0.901553         0.533156
 C        -2.033082         1.573020         1.831312
 C        -0.655553         2.315073         1.572641
 O        -2.904558         2.240939         2.688812
 C        -2.296007         1.709585         3.862344
 C        -1.603547         0.568470         2.892241
 C        -0.195416         0.234250         2.468924
 H         0.854056         0.035175        -0.243032
 H        -1.758145         1.386219        -0.407581
 H        -2.189336        -0.125720         0.448342
 H        -0.759273         3.100035         0.721623
 H        -0.066211         2.667470         2.452753
 H        -1.617254         2.518952         4.372689
 H        -2.947023         1.265537         4.651075
 H        -2.276779        -0.307764         2.977703
 H         0.659227         0.614574         3.016055
 H        -0.030631        -0.815709         2.337061
