19
Iteration:   343
 O         0.919996         0.782547         0.183913
 C        -0.238786         0.981576         1.048969
 C        -1.770732         1.040629         0.393776
 C        -1.908360         1.693299         1.819569
 C        -0.505484         2.373303         1.663878
 O        -2.921545         2.244349         2.703297
 C        -2.321090         1.653143         3.845881
 C        -1.751496         0.631599         2.827098
 C        -0.326062         0.132687         2.390682
 H         1.592353         0.258162         0.691027
 H        -1.860960         1.745766        -0.466991
 H        -2.374729         0.153609         0.195272
 H        -0.381136         3.125902         0.852061
 H        -0.119525         2.519505         2.674196
 H        -1.493893         2.268402         4.160703
 H        -3.018567         1.469982         4.686297
 H        -2.465739        -0.158963         2.536546
 H         0.382986         0.312755         3.177250
 H        -0.431203        -0.975821         2.217311
