19
Iteration:  1604charge 0 multiplicity 1
 O         0.782929         0.794047         0.117688
 C        -0.232426         0.983058         0.992673
 C        -1.735313         0.973943         0.470698
 C        -1.914290         1.565098         1.856152
 C        -0.629077         2.438747         1.574723
 O        -3.052900         2.170087         2.696161
 C        -2.277933         1.727995         3.810105
 C        -1.558345         0.600504         2.967008
 C        -0.122516         0.263966         2.455858
 H         1.067020        -0.170528         0.097132
 H        -1.952681         1.838971        -0.155807
 H        -2.363305         0.184476         0.038975
 H        -0.759072         3.156550         0.754247
 H        -0.068275         2.744792         2.424403
 H        -1.623320         2.418989         4.208643
 H        -2.971330         1.399486         4.573690
 H        -2.185738        -0.259205         2.913048
 H         0.820028         0.639024         3.009061
 H        -0.068783        -0.797977         2.387953
