19
Iteration:  1807charge 0 multiplicity 1
 O         0.858365         0.997704         0.177433
 C        -0.251828         0.963460         1.030201
 C        -1.723320         0.811324         0.447929
 C        -1.891586         1.637019         1.886759
 C        -0.587073         2.426469         1.523339
 O        -3.013629         2.266305         2.787922
 C        -2.235428         1.660228         3.820945
 C        -1.664074         0.542347         2.889526
 C        -0.271193         0.198962         2.376142
 H         1.106774         0.055108        -0.081861
 H        -1.813265         1.336911        -0.530095
 H        -2.140367        -0.262364         0.584137
 H        -0.814048         2.821628         0.526985
 H        -0.142513         3.064492         2.257681
 H        -1.526262         2.409847         4.125999
 H        -2.712958         1.255543         4.680603
 H        -2.532729        -0.160184         2.773847
 H         0.563979         0.568775         2.987774
 H        -0.072593        -0.959484         2.337063
