19
Iteration:  1861
 O         0.761943         0.868265         0.152843
 C        -0.258617         1.037543         1.063970
 C        -1.720859         0.981307         0.600888
 C        -1.932819         1.612888         1.914203
 C        -0.538238         2.412200         1.518246
 O        -3.048549         2.134075         2.607290
 C        -2.293547         1.703556         3.877832
 C        -1.603670         0.518820         2.898647
 C        -0.106598         0.247955         2.382685
 H         0.775254        -0.020076        -0.265726
 H        -1.797005         1.598391        -0.321947
 H        -2.129777        -0.072313         0.322902
 H        -0.619276         3.213883         0.814684
 H        -0.007202         2.837910         2.328877
 H        -1.567813         2.407821         4.222609
 H        -3.038102         1.499903         4.616066
 H        -2.430554        -0.219143         2.775707
 H         0.627865         0.573482         3.098142
 H         0.159930        -0.806524         1.972487
