19
Iteration:   626
 O         0.774100         0.671384         0.130687
 C        -0.134872         0.982192         1.083799
 C        -1.663750         0.917031         0.507282
 C        -1.986215         1.714120         1.860004
 C        -0.504941         2.430401         1.623579
 O        -2.989315         2.339682         2.685146
 C        -2.418154         1.643058         3.820915
 C        -1.637127         0.644998         2.835290
 C        -0.197157         0.125339         2.397555
 H         1.510170         1.278527         0.143585
 H        -1.802848         1.555047        -0.326943
 H        -2.172102         0.011129         0.341335
 H        -0.583224         3.049633         0.771161
 H        -0.086168         3.066491         2.561796
 H        -1.849830         2.302390         4.466976
 H        -3.220243         1.191036         4.400110
 H        -2.330888        -0.173174         2.720119
 H         0.672324         0.233434         2.977072
 H        -0.250079        -0.958906         2.150244
