19
Iteration:  3665
 O         0.878249         0.750267         0.162598
 C        -0.267530         0.977018         1.042861
 C        -1.795726         0.850568         0.490475
 C        -1.991156         1.685312         1.829072
 C        -0.567724         2.410602         1.536246
 O        -2.999407         2.260442         2.662890
 C        -2.357533         1.631181         3.888387
 C        -1.546756         0.660445         2.873927
 C        -0.101869         0.248410         2.509778
 H         0.691551         1.133754        -0.682368
 H        -1.887792         1.388947        -0.434713
 H        -2.267262        -0.175921         0.535167
 H        -0.912238         3.142695         0.816575
 H        -0.058557         2.953395         2.240052
 H        -1.793692         2.412156         4.356749
 H        -3.086896         1.178413         4.475219
 H        -2.091540        -0.275768         2.828844
 H         0.760266         0.682739         3.022428
 H         0.065977        -0.955356         2.389948
