19
Iteration:  2551
 O         0.833398         0.821511         0.131400
 C        -0.247407         0.985350         1.052239
 C        -1.797573         0.808599         0.629461
 C        -1.995543         1.690711         1.836036
 C        -0.638587         2.421669         1.609920
 O        -3.024635         2.285621         2.685116
 C        -2.298923         1.649970         3.805298
 C        -1.523800         0.660371         2.846060
 C        -0.106518         0.186463         2.299792
 H         1.476188         0.479895         0.743668
 H        -2.184343         1.221161        -0.308978
 H        -2.262181        -0.181001         0.838779
 H        -0.752695         3.167850         0.757566
 H         0.102927         2.745356         2.416222
 H        -1.604122         2.495900         4.194901
 H        -2.954979         1.229387         4.538705
 H        -2.259964        -0.105473         2.778676
 H         0.888908         0.484875         2.844388
 H        -0.155133        -0.863704         1.981936
