19
Iteration:  2729
 O         0.870870         0.788198         0.110375
 C        -0.289075         1.008598         0.946589
 C        -1.759766         0.912699         0.557171
 C        -1.962726         1.543604         1.932621
 C        -0.615320         2.363173         1.425584
 O        -3.046389         2.098751         2.620282
 C        -2.258400         1.769402         3.905841
 C        -1.578085         0.662440         3.052647
 C        -0.230736         0.285499         2.391449
 H         1.641918         1.136028         0.495602
 H        -1.975202         1.695498        -0.120624
 H        -2.222823        -0.008093         0.238202
 H        -0.847905         3.083802         0.618115
 H         0.268836         2.747101         2.020478
 H        -1.465182         2.573341         4.171400
 H        -2.728307         1.514606         4.943787
 H        -2.314146        -0.132576         3.174986
 H         0.701895         0.688134         2.903823
 H         0.007887        -0.823969         2.116985
