19
Iteration:  4945
 O         0.796262         0.889503         0.252255
 C        -0.280883         1.036335         1.058999
 C        -1.809818         0.761299         0.515942
 C        -1.953458         1.641269         1.751266
 C        -0.539225         2.422050         1.408456
 O        -2.987247         2.152404         2.732855
 C        -2.235585         1.687013         3.859273
 C        -1.622661         0.584502         2.864878
 C        -0.163336         0.324290         2.490870
 H         0.819914         0.153020        -0.306503
 H        -1.880756         1.264252        -0.501697
 H        -2.414304        -0.167893         0.614184
 H        -0.621542         3.330313         0.540671
 H        -0.060754         2.983092         2.324156
 H        -1.401900         2.283538         4.160227
 H        -2.731371         1.255012         4.620319
 H        -2.288395        -0.278250         2.639212
 H         0.553773         0.908830         3.124910
 H         0.275584        -0.661335         2.432868
