19
Iteration:  3271charge 0 multiplicity 1
 O         0.913106         0.740938         0.181247
 C        -0.310066         0.990424         1.009055
 C        -1.771268         0.875546         0.545728
 C        -2.001765         1.656175         1.862850
 C        -0.596730         2.404319         1.565128
 O        -3.012931         2.215270         2.669794
 C        -2.256497         1.660686         3.889648
 C        -1.597845         0.648772         2.863638
 C        -0.156625         0.265341         2.398190
 H         0.988765         1.438914        -0.555953
 H        -1.917510         1.353409        -0.462819
 H        -1.979461        -0.259324         0.229301
 H        -0.964186         3.171001         0.834279
 H         0.073552         2.745463         2.403885
 H        -1.616999         2.546808         4.102527
 H        -2.863180         1.304449         4.724864
 H        -2.366284        -0.186817         2.867603
 H         0.568033         0.571179         3.103127
 H        -0.096711        -0.784466         2.330498
