19
Iteration:   653charge 0 multiplicity 1
 O         0.832365         0.831578         0.157263
 C        -0.285207         0.923511         1.031491
 C        -1.800998         0.935720         0.512249
 C        -1.920736         1.723423         1.852523
 C        -0.442645         2.402801         1.567631
 O        -2.885088         2.259177         2.612674
 C        -2.303706         1.631278         3.826992
 C        -1.701525         0.526180         2.866330
 C        -0.322739         0.169596         2.498602
 H         1.499469         1.281846         0.643705
 H        -1.891174         1.590799        -0.422062
 H        -2.452964         0.005379         0.324807
 H        -0.299298         3.029057         0.610377
 H         0.069777         2.807444         2.308362
 H        -1.559103         2.293999         4.327626
 H        -3.100388         1.433368         4.574883
 H        -2.544767        -0.205801         2.696183
 H         0.514992         0.680662         3.125320
 H        -0.124399        -0.902643         2.418342
