19
Iteration:   114
 O         0.844822         0.598810         0.199730
 C        -0.186063         1.048409         1.050626
 C        -1.785295         1.130571         0.469614
 C        -1.939663         1.723735         1.892643
 C        -0.365818         2.408483         1.731557
 O        -2.947161         2.309503         2.614619
 C        -2.392569         1.572686         3.785897
 C        -1.777426         0.553204         2.778878
 C        -0.294102         0.154726         2.422427
 H         1.581694         1.226645         0.237932
 H        -1.680603         1.908731        -0.334395
 H        -2.391993         0.211313         0.251345
 H        -0.265748         3.266899         1.095717
 H         0.156520         2.554824         2.713315
 H        -1.536208         2.074724         4.278884
 H        -3.242732         1.197285         4.410802
 H        -2.410768        -0.346455         2.505418
 H         0.552748         0.378839         3.035277
 H        -0.299527        -0.890983         1.996358
