19
Iteration:  3278
 O         0.912576         0.724135         0.167252
 C        -0.260039         0.942232         0.978781
 C        -1.729570         0.912972         0.520702
 C        -2.010130         1.679739         1.876036
 C        -0.635357         2.374843         1.581470
 O        -3.029078         2.185196         2.663622
 C        -2.216653         1.631042         3.864602
 C        -1.581622         0.684629         2.859814
 C        -0.220961         0.285543         2.445773
 H         0.930668         1.414622        -0.551632
 H        -1.938204         1.510499        -0.414035
 H        -2.138704        -0.047286         0.535046
 H        -0.823036         3.115708         0.859617
 H        -0.042204         2.893417         2.336307
 H        -1.612952         2.493941         4.234985
 H        -2.852164         1.214553         4.759837
 H        -2.328933        -0.096692         2.872968
 H         0.572682         0.902904         2.975535
 H        -0.110963        -0.873008         2.372918
