19
Iteration:  1409charge 0 multiplicity 1
 O         0.799648         0.714780         0.124203
 C        -0.233511         0.970760         1.053640
 C        -1.728930         0.908448         0.536360
 C        -1.938075         1.718934         1.813312
 C        -0.646533         2.484323         1.440133
 O        -2.976725         2.261561         2.767737
 C        -2.317142         1.579952         3.803250
 C        -1.651091         0.588593         2.885320
 C        -0.139713         0.298002         2.466136
 H         1.666026         0.488672         0.607153
 H        -1.691629         1.505995        -0.370116
 H        -2.285688        -0.027592         0.421781
 H        -0.795018         3.185034         0.630603
 H        -0.093170         3.045995         2.213124
 H        -1.591005         2.374867         4.242753
 H        -2.887308         0.981409         4.605903
 H        -2.275179        -0.276094         2.712316
 H         0.768735         0.485897         3.093039
 H        -0.190129        -0.752132         2.393181
