19
Iteration:  2388
 O         0.864662         0.863873         0.153497
 C        -0.248901         0.982252         1.070921
 C        -1.804944         0.989853         0.507747
 C        -1.935854         1.648264         1.837626
 C        -0.648606         2.440235         1.490362
 O        -2.922616         2.226830         2.726548
 C        -2.268258         1.582658         3.851604
 C        -1.663580         0.611644         2.885386
 C        -0.201826         0.186405         2.407966
 H         1.372835         0.016798         0.327463
 H        -1.766221         1.547760        -0.382030
 H        -2.249660         0.044044         0.246550
 H        -0.788860         3.185802         0.618825
 H        -0.078452         2.992635         2.379176
 H        -1.657236         2.283266         4.416127
 H        -2.965788         1.076754         4.474916
 H        -2.302639        -0.265108         2.835829
 H         0.728705         0.479437         3.011989
 H        -0.164052        -0.881286         2.172661
