19
Iteration:  3770charge 0 multiplicity 1
 O         0.868949         0.762043         0.169462
 C        -0.220837         0.990301         1.098156
 C        -1.760839         0.855861         0.550289
 C        -1.957735         1.587646         1.890979
 C        -0.683121         2.410975         1.559029
 O        -2.971171         2.247173         2.621940
 C        -2.308188         1.749783         3.800940
 C        -1.540825         0.641904         2.905948
 C        -0.156124         0.216863         2.375024
 H         0.972954         1.458259        -0.418990
 H        -2.021279         1.291041        -0.515924
 H        -2.222900        -0.114040         0.618457
 H        -1.022831         3.160436         0.749294
 H        -0.014613         2.801427         2.428920
 H        -1.744690         2.428626         4.445226
 H        -3.009866         1.177446         4.544590
 H        -2.257013        -0.198068         2.975712
 H         0.751007         0.516060         2.996937
 H        -0.318959        -0.890862         2.150100
