19
Iteration:  1703charge 0 multiplicity 1
 O         0.771052         0.875443         0.145730
 C        -0.225765         0.967438         1.092230
 C        -1.696427         0.853385         0.493304
 C        -1.919366         1.648500         1.849012
 C        -0.631286         2.416184         1.629105
 O        -3.061174         2.231553         2.624138
 C        -2.195096         1.630706         3.856104
 C        -1.588819         0.635468         2.918587
 C        -0.166673         0.252234         2.350377
 H         0.852176        -0.016665        -0.195924
 H        -1.984149         1.430843        -0.349726
 H        -2.143231        -0.097764         0.347585
 H        -0.756585         3.223666         0.948826
 H        -0.064482         2.764729         2.492909
 H        -1.583446         2.344268         4.315175
 H        -2.984839         1.280861         4.517262
 H        -2.252992        -0.194469         2.885857
 H         0.640975         0.717182         2.973428
 H        -0.062698        -0.785540         2.281176
