19
Iteration:   623charge 0 multiplicity 1
 O         0.770171         0.648825         0.130735
 C        -0.167775         0.998576         1.096697
 C        -1.651375         0.910043         0.488317
 C        -1.985267         1.707488         1.859794
 C        -0.502068         2.440888         1.636926
 O        -2.985694         2.332938         2.702257
 C        -2.428154         1.656523         3.832672
 C        -1.638768         0.640342         2.840982
 C        -0.202128         0.149047         2.366319
 H         1.555336         1.297327         0.104612
 H        -1.715531         1.572794        -0.409707
 H        -2.114438        -0.094379         0.283862
 H        -0.409723         3.053007         0.714202
 H        -0.098312         3.045203         2.622902
 H        -1.852376         2.384913         4.485440
 H        -3.300642         1.188594         4.381851
 H        -2.257977        -0.288351         2.751383
 H         0.689010         0.259878         2.976800
 H        -0.206289        -0.943592         2.101779
