19
Iteration:  1491
 O         0.838740         0.850480         0.139786
 C        -0.190122         1.005127         1.085229
 C        -1.798673         0.938518         0.518012
 C        -1.951216         1.668309         1.834541
 C        -0.627266         2.378342         1.523875
 O        -3.030237         2.095821         2.667700
 C        -2.223926         1.733875         3.817303
 C        -1.560689         0.671125         2.944631
 C        -0.258183         0.201763         2.403322
 H         1.367079         0.066341         0.313009
 H        -1.785886         1.430713        -0.473567
 H        -2.194933        -0.100471         0.441525
 H        -0.546047         3.321353         0.707771
 H         0.102197         2.767189         2.392698
 H        -1.501074         2.481058         4.155344
 H        -2.831094         1.432209         4.664958
 H        -2.472191        -0.022344         2.870528
 H         0.622819         0.471023         2.973556
 H        -0.441625        -0.930719         2.310125
