19
Iteration:  4068charge 0 multiplicity 1
 O         0.889207         0.703583         0.275766
 C        -0.225071         1.069498         1.030185
 C        -1.715692         0.876051         0.475862
 C        -1.980573         1.619049         1.810147
 C        -0.772879         2.411219         1.521824
 O        -3.015806         2.251919         2.678939
 C        -2.194966         1.695485         3.842127
 C        -1.575475         0.604644         2.917107
 C        -0.197085         0.229036         2.437957
 H         0.918741         1.218641        -0.580132
 H        -1.953248         1.482105        -0.327286
 H        -2.057812        -0.170008         0.203686
 H        -0.960115         3.171227         0.725823
 H        -0.329322         2.912424         2.312012
 H        -1.325786         2.334064         3.993226
 H        -2.800788         1.463012         4.836497
 H        -2.200433        -0.282366         2.982357
 H         0.785674         0.502508         2.928345
 H        -0.172152        -0.764108         2.037319
