19
Iteration:  3945
 O         0.893051         0.738997         0.269789
 C        -0.243563         1.037955         1.032566
 C        -1.780596         0.912793         0.465856
 C        -1.961496         1.614150         1.833807
 C        -0.594691         2.467855         1.398540
 O        -3.068213         2.200694         2.673794
 C        -2.196495         1.644365         3.900365
 C        -1.567428         0.590556         2.954767
 C        -0.232686         0.254793         2.464552
 H         0.794891         1.173113        -0.575694
 H        -1.643661         1.511740        -0.449735
 H        -2.256936        -0.000952         0.315709
 H        -0.831651         3.084017         0.550826
 H        -0.038813         2.942043         2.136586
 H        -1.623460         2.455802         4.186281
 H        -2.837544         1.241430         4.677555
 H        -2.326910        -0.173759         2.901321
 H         0.654328         0.535924         3.118729
 H        -0.224930        -0.859228         2.245148
