19
Iteration:  1649
 O         0.863047         0.978448         0.251400
 C        -0.338758         0.980543         1.074666
 C        -1.831969         0.757150         0.555442
 C        -1.989670         1.695816         1.804851
 C        -0.647237         2.407304         1.474459
 O        -2.905442         2.271764         2.747699
 C        -2.202975         1.599087         3.815666
 C        -1.570356         0.654749         2.826326
 C        -0.234487         0.169408         2.368503
 H         1.169442         0.042007         0.181359
 H        -1.758612         1.311797        -0.389980
 H        -2.066659        -0.274076         0.426615
 H        -0.782602         3.024886         0.660493
 H        -0.022145         2.825840         2.244833
 H        -1.581790         2.354413         4.126449
 H        -2.840688         1.292485         4.622186
 H        -2.226778        -0.167942         2.685159
 H         0.614452         0.525957         3.053896
 H        -0.104810        -0.875025         2.170020
