19
Iteration:    80charge 0 multiplicity 1
 O         0.945741         0.744596         0.267744
 C        -0.188578         0.879493         1.110641
 C        -1.698564         1.068328         0.426858
 C        -1.895719         1.811869         1.837305
 C        -0.597724         2.406943         1.702822
 O        -2.852842         2.373530         2.754742
 C        -2.405960         1.602359         3.748043
 C        -1.755975         0.602243         2.754043
 C        -0.315669        -0.027097         2.368706
 H         0.805380         1.048280        -0.597719
 H        -1.628417         1.706044        -0.477434
 H        -2.271507         0.172600         0.110136
 H        -0.503563         3.076886         0.945537
 H        -0.127798         2.851449         2.626568
 H        -1.663513         2.072030         4.426838
 H        -3.299177         1.278104         4.317369
 H        -2.672815         0.015198         2.467884
 H         0.480381         0.148058         3.018224
 H        -0.357482        -1.165909         2.232732
