19
Iteration:  4103charge 0 multiplicity 1
 O         0.847996         0.806508         0.183584
 C        -0.252723         0.996945         1.025293
 C        -1.765199         0.824677         0.497796
 C        -1.908774         1.707513         1.848612
 C        -0.617510         2.378907         1.534472
 O        -3.032674         2.190882         2.628785
 C        -2.262733         1.652914         3.815753
 C        -1.580756         0.663871         2.953644
 C        -0.168779         0.244448         2.483849
 H         0.595042         1.134422        -0.734064
 H        -2.036353         1.433307        -0.412449
 H        -2.191515        -0.193114         0.659141
 H        -0.704584         3.176387         0.741149
 H        -0.070601         2.565247         2.564901
 H        -1.543856         2.427558         4.024200
 H        -2.889777         1.582446         4.807570
 H        -2.243639        -0.205372         2.664321
 H         0.685809         0.589433         3.095989
 H        -0.028216        -0.882249         2.480362
