19
Iteration:  2709
 O         0.765144         0.783148         0.012024
 C        -0.206928         1.036967         1.028648
 C        -1.767077         0.816236         0.549414
 C        -1.964935         1.583717         1.858216
 C        -0.673812         2.451119         1.590779
 O        -3.031949         2.192515         2.644191
 C        -2.278505         1.777414         3.810768
 C        -1.524819         0.627739         3.000491
 C        -0.084250         0.210043         2.418595
 H         1.637182         0.720105         0.467859
 H        -1.873287         1.385989        -0.383080
 H        -2.162094        -0.146021         0.656395
 H        -0.862234         3.148882         0.735654
 H        -0.145817         3.009337         2.405333
 H        -1.691291         2.602846         4.268101
 H        -3.036472         1.509052         4.657048
 H        -2.225377        -0.254251         3.013561
 H         0.707053         0.546356         3.090075
 H        -0.140788        -0.954009         2.297110
