19
Iteration:   481charge 0 multiplicity 1
 O         0.862155         0.638967         0.176049
 C        -0.215754         0.927154         1.085624
 C        -1.777309         1.033266         0.451618
 C        -1.960223         1.792456         1.806884
 C        -0.402809         2.429810         1.624030
 O        -3.090381         2.225331         2.700773
 C        -2.296151         1.603744         3.824860
 C        -1.666154         0.688957         2.794027
 C        -0.235567         0.120708         2.450112
 H         1.203988         1.522175        -0.154361
 H        -1.790713         1.754529        -0.380849
 H        -2.123036         0.007380         0.350583
 H        -0.367725         3.185509         0.850276
 H        -0.018241         2.645806         2.709074
 H        -1.649711         2.460537         4.086944
 H        -3.010234         1.179220         4.577305
 H        -2.451664        -0.100215         2.707812
 H         0.554697         0.544778         3.069821
 H        -0.113678        -0.970227         2.508322
