19
Iteration:    36
 O         0.933202         0.798122         0.283351
 C        -0.261118         0.978690         1.068291
 C        -1.724711         1.168259         0.430326
 C        -1.858883         1.765105         1.825961
 C        -0.484920         2.375622         1.714485
 O        -2.924800         2.274599         2.681802
 C        -2.353686         1.658596         3.813256
 C        -1.771286         0.534490         2.751340
 C        -0.382261        -0.001879         2.350873
 H         1.074509        -0.120311         0.192060
 H        -1.556438         1.826847        -0.425634
 H        -2.457623         0.408541         0.136543
 H        -0.365863         3.197196         1.158483
 H         0.103487         2.448960         2.672397
 H        -1.425921         2.168703         4.065987
 H        -3.040436         1.483270         4.643317
 H        -2.586627        -0.190507         2.475840
 H         0.434514         0.200282         2.949277
 H        -0.330956        -1.105173         2.039091
