19
Iteration:  1375
 O         0.747220         0.675506         0.113930
 C        -0.238309         1.004153         1.047750
 C        -1.704040         0.927974         0.527295
 C        -1.908162         1.620022         1.881715
 C        -0.598315         2.426846         1.616885
 O        -3.016724         2.201906         2.652458
 C        -2.327695         1.727735         3.817388
 C        -1.618506         0.628719         2.926468
 C        -0.145166         0.286320         2.323888
 H         1.607883         1.025171         0.512168
 H        -1.723851         1.468583        -0.422711
 H        -2.207240        -0.053951         0.439348
 H        -0.740098         3.231070         0.859158
 H        -0.067000         2.680568         2.586181
 H        -1.699552         2.580093         4.328171
 H        -2.890541         1.197972         4.741904
 H        -2.243592        -0.283990         2.875387
 H         0.810158         0.659547         2.805252
 H        -0.121394        -0.789665         2.110977
