19
Iteration:  2896charge 0 multiplicity 1
 O         0.872745         0.869782         0.278056
 C        -0.295865         0.982179         1.012540
 C        -1.837622         0.756861         0.565888
 C        -1.950904         1.670191         1.851067
 C        -0.617828         2.358017         1.571321
 O        -2.969635         2.252643         2.603397
 C        -2.212073         1.668078         3.794250
 C        -1.520876         0.616339         2.889705
 C        -0.241975         0.257650         2.356516
 H         0.728309         1.526566        -0.368562
 H        -2.126115         1.255496        -0.331617
 H        -2.210920        -0.159551         0.718824
 H        -0.731193         3.051683         0.694633
 H        -0.020219         2.676216         2.458452
 H        -1.538500         2.385211         4.261233
 H        -2.880076         1.507792         4.732052
 H        -2.116673        -0.359651         2.902732
 H         0.679761         0.581011         2.881777
 H        -0.167648        -0.915338         2.252679
