19
Iteration:  3407charge 0 multiplicity 1
 O         0.926156         0.718479         0.198905
 C        -0.236974         1.021867         1.028544
 C        -1.752544         0.850606         0.517730
 C        -2.047971         1.580227         1.823686
 C        -0.677400         2.419239         1.570323
 O        -3.068442         2.235003         2.709176
 C        -2.188329         1.706631         3.855276
 C        -1.603457         0.671518         2.882561
 C        -0.170043         0.244297         2.339065
 H         0.971192         1.531115        -0.261436
 H        -1.647658         1.597057        -0.353330
 H        -2.295081        -0.122787         0.379446
 H        -0.738245         3.190190         0.838048
 H         0.060818         2.654113         2.339384
 H        -1.525564         2.463670         4.151384
 H        -2.870334         1.391115         4.653901
 H        -2.146836        -0.245185         2.992794
 H         0.678631         0.407853         3.021924
 H        -0.154696        -0.841315         2.304584
