19
Iteration:   862
 O         0.832271         0.795780         0.108100
 C        -0.168969         0.944993         1.084237
 C        -1.662661         0.873275         0.562562
 C        -1.956066         1.736773         1.798890
 C        -0.550155         2.402298         1.648324
 O        -2.993285         2.342689         2.708468
 C        -2.312700         1.660504         3.888781
 C        -1.661078         0.640960         2.801034
 C        -0.291276         0.018403         2.352206
 H         1.195864         1.728332        -0.051922
 H        -1.695277         1.218897        -0.509408
 H        -2.117182        -0.170915         0.515114
 H        -0.565560         3.309265         0.754426
 H        -0.101832         2.813448         2.565735
 H        -1.703025         2.449434         4.231290
 H        -2.951883         1.432620         4.738864
 H        -2.414637        -0.214749         2.776427
 H         0.518370         0.135467         3.103995
 H        -0.414879        -1.024411         1.978579
