19
Iteration:  3363charge 0 multiplicity 1
 O         0.813893         0.799784         0.210555
 C        -0.222642         0.949736         1.051166
 C        -1.756298         0.863277         0.557321
 C        -1.963909         1.641068         1.868565
 C        -0.575144         2.381933         1.483735
 O        -3.028516         2.274695         2.671665
 C        -2.245995         1.629350         3.828826
 C        -1.591220         0.628592         2.928743
 C        -0.189504         0.266597         2.414914
 H         0.687207         1.351422        -0.533093
 H        -1.759906         1.517408        -0.350799
 H        -2.187418        -0.139350         0.185838
 H        -0.683877         3.040872         0.614586
 H        -0.088546         2.864357         2.345893
 H        -1.686545         2.389775         4.263070
 H        -2.912907         1.103228         4.490761
 H        -2.217435        -0.246321         2.856663
 H         0.687389         0.600077         3.035483
 H         0.069509        -0.781517         2.185499
