19
Iteration:   124
 O         0.847886         0.583690         0.175126
 C        -0.218284         0.999282         1.063623
 C        -1.733590         1.201337         0.484201
 C        -1.864452         1.718826         1.810200
 C        -0.446372         2.411036         1.775443
 O        -2.971357         2.305336         2.660036
 C        -2.424827         1.612398         3.766941
 C        -1.673538         0.542274         2.779392
 C        -0.295791         0.106771         2.351018
 H         1.618520         1.006177         0.485361
 H        -1.893417         1.920237        -0.355158
 H        -2.366165         0.316414         0.250035
 H        -0.501066         3.220398         1.109528
 H         0.078693         2.695613         2.741595
 H        -1.837587         2.340887         4.355095
 H        -3.149805         1.239885         4.526258
 H        -2.472083        -0.255894         2.591536
 H         0.425953         0.425979         3.050120
 H        -0.106177        -1.023004         2.307355
