19
Iteration:  4744
 O         0.863931         0.666182         0.206269
 C        -0.290432         1.006738         0.973512
 C        -1.777821         0.946610         0.494077
 C        -1.984445         1.597327         1.853239
 C        -0.671343         2.430805         1.609455
 O        -3.064853         2.090517         2.620979
 C        -2.217307         1.761057         3.863195
 C        -1.511875         0.706741         2.951965
 C        -0.130170         0.280633         2.362726
 H         1.380243         1.442466        -0.160975
 H        -1.969032         1.456077        -0.396381
 H        -2.222974        -0.055764         0.264038
 H        -1.045802         3.258884         0.972687
 H        -0.044102         2.683358         2.610664
 H        -1.656362         2.533021         4.252553
 H        -2.898708         1.434596         4.624006
 H        -2.048332        -0.199886         3.153661
 H         0.783138         0.616444         2.750846
 H        -0.127154        -0.826294         2.194506
