19
Iteration:  3563charge 0 multiplicity 1
 O         0.872932         0.829918         0.229954
 C        -0.218555         0.988052         1.063350
 C        -1.768820         0.811127         0.567214
 C        -1.999202         1.613391         1.839369
 C        -0.699149         2.397747         1.542047
 O        -2.961632         2.282478         2.632640
 C        -2.179394         1.635298         3.842574
 C        -1.676672         0.621540         2.879164
 C        -0.197870         0.242391         2.391611
 H         0.941507         1.474959        -0.548218
 H        -1.692144         1.461452        -0.457007
 H        -2.202153        -0.177276         0.423180
 H        -0.888758         2.930398         0.604504
 H        -0.007657         2.956187         2.247806
 H        -1.402500         2.299750         4.302554
 H        -2.838297         1.487750         4.818007
 H        -2.270098        -0.285847         2.677330
 H         0.720836         0.498357         3.052191
 H        -0.129031        -0.939836         2.379732
