19
Iteration:  2924
 O         0.933147         0.809621         0.141498
 C        -0.182692         0.992239         1.092258
 C        -1.774053         0.848326         0.502888
 C        -1.968051         1.635040         1.798825
 C        -0.709526         2.387790         1.493941
 O        -2.985918         2.215684         2.707929
 C        -2.296366         1.737898         3.901495
 C        -1.597091         0.610528         2.937689
 C        -0.182747         0.159048         2.394023
 H         0.843993         1.601120        -0.373895
 H        -1.697543         1.490007        -0.443798
 H        -2.347210        -0.196938         0.527582
 H        -0.913447         3.020926         0.626634
 H        -0.228068         3.017322         2.245722
 H        -1.504406         2.478082         4.298685
 H        -2.998048         1.616082         4.694958
 H        -2.281634        -0.227215         3.027802
 H         0.698814         0.437784         2.985885
 H        -0.258270        -0.879590         2.169676
