19
Iteration:  2893charge 0 multiplicity 1
 O         0.869543         0.853109         0.274953
 C        -0.265340         0.983568         1.017113
 C        -1.823963         0.761901         0.542133
 C        -1.984264         1.687038         1.859671
 C        -0.637290         2.349650         1.577675
 O        -2.949066         2.237292         2.614235
 C        -2.206928         1.675633         3.797568
 C        -1.552223         0.639876         2.909850
 C        -0.223400         0.262347         2.357036
 H         0.721431         1.549573        -0.439142
 H        -2.066625         1.223229        -0.472113
 H        -2.361140        -0.232921         0.635280
 H        -0.750063         3.087306         0.751266
 H        -0.094911         2.617986         2.494928
 H        -1.551573         2.379488         4.286170
 H        -2.837961         1.451204         4.637266
 H        -2.095366        -0.328546         2.851708
 H         0.701477         0.569403         2.774721
 H        -0.130396        -0.863061         2.323841
