19
Iteration:  1248
 O         0.686893         0.725541        -0.009873
 C        -0.204933         0.980028         1.071330
 C        -1.703524         0.921503         0.562520
 C        -1.940520         1.698330         1.763496
 C        -0.635914         2.440326         1.620066
 O        -2.980248         2.191453         2.663031
 C        -2.300221         1.615725         3.792849
 C        -1.595558         0.670252         2.897758
 C        -0.137607         0.303074         2.536795
 H         1.495886         0.520837         0.488735
 H        -1.951127         1.262597        -0.438134
 H        -2.007905        -0.117341         0.751881
 H        -0.598906         3.183170         0.914411
 H        -0.126593         2.777458         2.558985
 H        -1.526881         2.337465         4.196232
 H        -2.928853         1.244422         4.528520
 H        -2.254214        -0.157896         2.728277
 H         0.696442         0.690135         3.113983
 H         0.044373        -0.742744         2.557864
