19
Iteration:   194charge 0 multiplicity 1
 O         0.922983         0.864349         0.395503
 C        -0.255486         0.916172         1.054135
 C        -1.773353         1.053168         0.395687
 C        -1.938744         1.691537         1.820941
 C        -0.551715         2.311844         1.600689
 O        -2.869185         2.418669         2.663495
 C        -2.310597         1.554935         3.776329
 C        -1.692805         0.577684         2.865754
 C        -0.357691         0.074537         2.374084
 H         0.924365         0.456385        -0.473565
 H        -1.782352         1.814490        -0.443439
 H        -2.376667         0.164270         0.044579
 H        -0.377690         3.194375         0.896155
 H        -0.034686         2.530211         2.513994
 H        -1.543021         2.159671         4.359851
 H        -3.054131         1.194861         4.515139
 H        -2.395958        -0.239908         2.676218
 H         0.619455         0.236161         2.975650
 H        -0.332603        -0.967827         2.150475
