19
Iteration:  2613charge 0 multiplicity 1
 O         0.820723         0.749292         0.142861
 C        -0.247805         1.016506         1.099232
 C        -1.730750         0.770317         0.600948
 C        -1.974568         1.671760         1.802016
 C        -0.667948         2.468514         1.584626
 O        -3.014481         2.187244         2.668409
 C        -2.199975         1.677518         3.819989
 C        -1.610352         0.689966         2.866622
 C        -0.167401         0.236046         2.408482
 H         0.774896         1.400816        -0.557057
 H        -1.928017         1.241266        -0.448062
 H        -2.216026        -0.228212         0.662081
 H        -0.526611         3.245581         0.836087
 H        -0.095102         2.855131         2.382113
 H        -1.456309         2.404383         4.176321
 H        -2.765155         1.375101         4.711507
 H        -2.263841        -0.228347         2.729912
 H         0.638122         0.615394         2.971921
 H         0.058814        -0.818137         2.175649
