19
Iteration:   466charge 0 multiplicity 1
 O         0.844141         0.591915         0.252859
 C        -0.162407         1.048087         1.071147
 C        -1.704915         1.040595         0.491394
 C        -1.928254         1.702005         1.800923
 C        -0.522430         2.424824         1.600007
 O        -3.023998         2.303833         2.727966
 C        -2.369809         1.614237         3.803048
 C        -1.666799         0.557130         2.846734
 C        -0.248753         0.212091         2.379495
 H         1.165858         1.209094        -0.480871
 H        -1.688826         1.566268        -0.490227
 H        -2.405310         0.148836         0.342606
 H        -0.456379         3.293301         0.720743
 H         0.145932         2.783660         2.376136
 H        -1.681799         2.148186         4.489921
 H        -3.076873         1.185638         4.507416
 H        -2.331186        -0.285349         2.598760
 H         0.579206         0.447689         3.110628
 H        -0.196079        -0.801290         2.028092
