19
Iteration:  1421
 O         0.765640         0.805611         0.132738
 C        -0.248751         0.960182         1.099337
 C        -1.742707         0.905627         0.531375
 C        -1.959719         1.739515         1.838058
 C        -0.594886         2.380974         1.441389
 O        -2.956374         2.247708         2.706761
 C        -2.282779         1.567921         3.887741
 C        -1.625833         0.597553         2.823545
 C        -0.194862         0.271833         2.461947
 H         1.531760         0.464175         0.601915
 H        -1.742765         1.442395        -0.413766
 H        -2.272931        -0.046691         0.428673
 H        -0.579784         2.845808         0.484688
 H         0.097291         3.007238         2.091249
 H        -1.508862         2.233762         4.432920
 H        -3.139538         1.395230         4.565359
 H        -2.255671        -0.253740         2.663618
 H         0.447882         0.909248         3.100575
 H         0.199991        -0.712933         2.411178
