19
Iteration:  1291charge 0 multiplicity 1
 O         0.897647         0.661043         0.172655
 C        -0.260586         1.025724         0.980267
 C        -1.812661         0.873112         0.498398
 C        -1.966789         1.644435         1.903710
 C        -0.736270         2.486592         1.498833
 O        -2.905587         2.215405         2.723095
 C        -2.294416         1.672984         3.842741
 C        -1.545278         0.634127         2.878277
 C        -0.219048         0.262915         2.400759
 H         1.610743         1.057956         0.645079
 H        -1.918032         1.693630        -0.198124
 H        -2.254231        -0.070609         0.146407
 H        -0.756538         3.121951         0.688175
 H        -0.196935         3.089444         2.258580
 H        -1.724197         2.402295         4.302716
 H        -2.949534         1.247770         4.472777
 H        -2.195854        -0.206524         2.896128
 H         0.706188         0.439493         2.925457
 H        -0.235243        -0.783967         2.294444
