19
Iteration:  3474
 O         0.829473         0.739320         0.184915
 C        -0.235847         0.955454         1.021359
 C        -1.713057         0.833293         0.497965
 C        -2.023708         1.606608         1.816652
 C        -0.602594         2.495679         1.574139
 O        -2.994674         2.263620         2.697701
 C        -2.270829         1.642008         3.888632
 C        -1.595847         0.648356         2.855316
 C        -0.189506         0.279916         2.401007
 H         0.758559         0.963066        -0.811114
 H        -1.705580         1.596005        -0.342813
 H        -1.934465        -0.163065         0.431262
 H        -0.707896         3.246961         0.845912
 H        -0.011471         2.944225         2.412292
 H        -1.694902         2.299147         4.461764
 H        -3.050112         1.007997         4.467947
 H        -2.245997        -0.198666         2.941216
 H         0.604222         0.726466         3.087682
 H         0.143446        -0.787296         2.525345
