19
Iteration:  2401charge 0 multiplicity 1
 O         0.758155         0.866331         0.274032
 C        -0.251779         1.101095         1.090695
 C        -1.861721         0.946679         0.526919
 C        -1.928986         1.663934         1.836660
 C        -0.657846         2.447579         1.570258
 O        -2.894724         2.287241         2.619328
 C        -2.216877         1.574415         3.765129
 C        -1.535394         0.471260         2.823193
 C        -0.175442         0.131471         2.362039
 H         1.194211         0.114013         0.625347
 H        -2.193502         1.602164        -0.248338
 H        -2.408621        -0.035218         0.592915
 H        -0.768657         3.104073         0.663185
 H        -0.045791         2.962512         2.406836
 H        -1.454799         2.220775         4.199669
 H        -2.944737         1.365395         4.576670
 H        -2.324810        -0.287043         2.641612
 H         0.560112         0.571224         3.114079
 H         0.048071        -0.886004         2.232352
