19
Iteration:  3825
 O         0.889137         0.657654         0.212083
 C        -0.270724         0.957578         1.039379
 C        -1.739856         0.932265         0.527992
 C        -1.997507         1.660885         1.891758
 C        -0.698284         2.509701         1.497174
 O        -3.012632         2.259940         2.612099
 C        -2.233817         1.573439         3.860352
 C        -1.572902         0.603389         2.883509
 C        -0.172305         0.303822         2.464032
 H         0.830663         1.019887        -0.697422
 H        -1.843900         1.705064        -0.301595
 H        -2.070208        -0.051972         0.309252
 H        -0.798258         3.271545         0.642164
 H        -0.154412         2.982707         2.347770
 H        -1.524341         2.272347         4.216126
 H        -2.869660         1.101298         4.696255
 H        -2.212489        -0.278411         2.782014
 H         0.674242         0.786524         3.014111
 H         0.105709        -0.769900         2.637987
