19
Iteration:  4318charge 0 multiplicity 1
 O         0.844463         0.676918         0.261762
 C        -0.192706         1.071293         1.124002
 C        -1.763101         0.868086         0.523901
 C        -1.982780         1.656934         1.804909
 C        -0.693045         2.481050         1.451010
 O        -2.975593         2.257900         2.718481
 C        -2.257252         1.586042         3.883621
 C        -1.552951         0.656345         2.780219
 C        -0.150366         0.276950         2.402710
 H         0.694038         1.170163        -0.505418
 H        -2.081186         1.218715        -0.412364
 H        -2.188739        -0.221952         0.563405
 H        -0.717595         3.065333         0.382665
 H        -0.106556         2.996215         2.271279
 H        -1.632091         2.225196         4.473289
 H        -2.994273         1.107649         4.405013
 H        -2.200238        -0.232140         2.735914
 H         0.542394         0.586186         3.227680
 H        -0.167722        -0.812479         2.337608
