19
Iteration:  1628charge 0 multiplicity 1
 O         0.863985         0.808498         0.128899
 C        -0.243234         1.051338         1.018824
 C        -1.708858         0.886316         0.474559
 C        -1.983002         1.643760         1.779883
 C        -0.678987         2.449603         1.589954
 O        -3.048898         2.227508         2.711143
 C        -2.141217         1.667307         3.923594
 C        -1.643447         0.589963         2.877460
 C        -0.200433         0.244672         2.385351
 H         1.140270        -0.142949         0.258111
 H        -1.913790         1.193842        -0.595142
 H        -2.178575        -0.092882         0.690394
 H        -0.776290         3.144928         0.831713
 H        -0.207302         2.873605         2.450336
 H        -1.445313         2.450540         4.254517
 H        -2.795542         1.326842         4.719477
 H        -2.322345        -0.246095         2.949143
 H         0.675943         0.587608         3.050392
 H        -0.092169        -0.839187         2.151211
