19
Iteration:  2408charge 0 multiplicity 1
 O         0.791558         0.872459         0.268808
 C        -0.329884         1.071122         1.119234
 C        -1.899147         0.908096         0.551255
 C        -1.935097         1.665968         1.830295
 C        -0.615787         2.413591         1.659273
 O        -2.922252         2.310829         2.597049
 C        -2.168531         1.578791         3.760223
 C        -1.563728         0.438586         2.784461
 C        -0.161164         0.210522         2.352451
 H         1.252160         0.067128         0.622840
 H        -2.161473         1.351838        -0.441161
 H        -2.389283        -0.014382         0.532688
 H        -0.882709         3.231166         0.886911
 H         0.020025         3.029970         2.437659
 H        -1.309702         2.180305         4.130907
 H        -2.869861         1.604302         4.565810
 H        -2.240234        -0.319554         2.456784
 H         0.658909         0.615024         3.023209
 H         0.030129        -0.892658         2.044546
