19
Iteration:   683charge 0 multiplicity 1
 O         0.869449         0.695109         0.128306
 C        -0.220046         0.963411         1.046125
 C        -1.631431         0.907313         0.425940
 C        -2.065116         1.731397         1.803850
 C        -0.721356         2.421867         1.694173
 O        -2.982570         2.369616         2.695329
 C        -2.213398         1.654005         3.846049
 C        -1.625660         0.566057         2.858323
 C        -0.247806         0.147081         2.395904
 H         1.683797         0.904278         0.658249
 H        -1.570918         1.583257        -0.419912
 H        -2.164483         0.006051         0.160790
 H        -0.638923         3.220569         0.854611
 H        -0.317334         2.877690         2.652045
 H        -1.554808         2.349144         4.288809
 H        -2.924592         1.277142         4.551337
 H        -2.381515        -0.210550         2.809234
 H         0.633355         0.365011         3.038996
 H        -0.322201        -0.882182         2.179292
