19
Iteration:  1381
 O         0.771529         0.632582         0.136534
 C        -0.268503         1.038593         1.013937
 C        -1.686312         0.906499         0.528627
 C        -1.975242         1.691774         1.842810
 C        -0.644831         2.413096         1.667816
 O        -2.965694         2.190435         2.624221
 C        -2.297876         1.711979         3.943909
 C        -1.619217         0.627393         2.887400
 C        -0.137270         0.308901         2.269106
 H         1.657145         0.866395         0.490684
 H        -1.816297         1.468501        -0.414634
 H        -2.045062        -0.130326         0.523926
 H        -0.634826         3.217009         0.898826
 H        -0.155921         2.994284         2.479571
 H        -1.885413         2.591977         4.335837
 H        -2.943563         1.164589         4.554414
 H        -2.254571        -0.287940         2.847397
 H         0.719176         0.594865         2.855224
 H        -0.050538        -0.811685         2.208432
