19
Iteration:  1382charge 0 multiplicity 1
 O         0.773565         0.627380         0.137813
 C        -0.269402         1.044848         1.008380
 C        -1.685949         0.903660         0.527870
 C        -1.983066         1.699267         1.837379
 C        -0.649365         2.415247         1.675906
 O        -2.962811         2.191436         2.622354
 C        -2.291581         1.705885         3.953077
 C        -1.611589         0.631377         2.882082
 C        -0.139888         0.306654         2.269258
 H         1.683037         0.850864         0.499855
 H        -1.838168         1.467956        -0.414905
 H        -2.028709        -0.144939         0.524412
 H        -0.634963         3.229523         0.878355
 H        -0.177629         3.002141         2.440817
 H        -1.879303         2.612004         4.353880
 H        -3.003572         1.144783         4.561483
 H        -2.270134        -0.295110         2.847160
 H         0.716589         0.595627         2.880777
 H        -0.036178        -0.832241         2.213038
