19
Iteration:  1853
 O         0.775733         0.859513         0.176341
 C        -0.230414         1.058108         1.092712
 C        -1.774223         0.970283         0.564000
 C        -1.975553         1.583009         1.873924
 C        -0.581847         2.468608         1.599871
 O        -2.986596         2.102183         2.572475
 C        -2.279812         1.709678         3.843884
 C        -1.568532         0.586586         2.922720
 C        -0.145951         0.181889         2.340330
 H         0.666167        -0.018530        -0.214947
 H        -1.783320         1.752352        -0.178466
 H        -2.378007         0.046177         0.378477
 H        -0.895694         3.141723         0.803919
 H         0.129487         2.819345         2.373607
 H        -1.458901         2.415785         4.144727
 H        -3.021073         1.548898         4.577477
 H        -2.193206        -0.290134         2.899029
 H         0.727174         0.595083         2.987762
 H         0.193639        -0.875218         2.198602
