19
Iteration:  3465charge 0 multiplicity 1
 O         0.866598         0.745144         0.198908
 C        -0.242575         0.989269         1.026953
 C        -1.709769         0.832933         0.475950
 C        -1.962101         1.646417         1.840039
 C        -0.673597         2.468245         1.601817
 O        -2.974032         2.282813         2.723812
 C        -2.320231         1.626701         3.823505
 C        -1.603715         0.615663         2.892526
 C        -0.136576         0.263787         2.393946
 H         0.517421         1.016324        -0.719397
 H        -2.011903         1.299958        -0.528744
 H        -2.139868        -0.139111         0.414773
 H        -0.634955         3.092481         0.727862
 H         0.020987         2.783512         2.382053
 H        -1.628021         2.253309         4.307594
 H        -3.004758         1.363743         4.652819
 H        -2.253320        -0.260897         2.778750
 H         0.517671         0.960552         3.011977
 H         0.060278        -0.914096         2.359172
