19
Iteration:  1446charge 0 multiplicity 1
 O         0.826699         0.837833         0.050927
 C        -0.270511         0.977066         0.993792
 C        -1.789036         0.826918         0.551425
 C        -1.959312         1.655758         1.818967
 C        -0.647209         2.367342         1.633855
 O        -2.906100         2.291944         2.662964
 C        -2.297424         1.634943         3.799162
 C        -1.600012         0.610809         2.890105
 C        -0.180154         0.279313         2.507735
 H         1.467160         0.256344         0.541610
 H        -1.898153         1.412161        -0.383210
 H        -2.321524        -0.138824         0.522386
 H        -0.647263         3.291410         0.858740
 H        -0.068152         2.906981         2.515994
 H        -1.719778         2.427663         4.273231
 H        -3.081874         1.374379         4.485169
 H        -2.135907        -0.397957         2.906070
 H         0.672352         0.610106         3.073882
 H        -0.135142        -0.819941         2.235931
