19
Iteration:  4296charge 0 multiplicity 1
 O         0.904245         0.591287         0.257330
 C        -0.287238         1.052454         0.948677
 C        -1.681460         0.857644         0.507755
 C        -1.896391         1.676119         1.813722
 C        -0.726873         2.497499         1.460023
 O        -3.030755         2.307072         2.739036
 C        -2.293938         1.539586         3.920057
 C        -1.606852         0.605274         2.923472
 C        -0.166667         0.344208         2.376130
 H         1.096657         1.268621        -0.513059
 H        -1.908449         1.358923        -0.379120
 H        -2.134621        -0.203928         0.322159
 H        -0.826461         3.355133         0.578716
 H        -0.171457         2.865508         2.413849
 H        -1.620620         2.268018         4.364444
 H        -2.925578         1.115914         4.699712
 H        -2.294558        -0.242660         2.810979
 H         0.659014         0.919921         2.887015
 H         0.001768        -0.738846         2.283178
