19
Iteration:  2067charge 0 multiplicity 1
 O         0.831501         0.766815         0.143555
 C        -0.251691         1.068921         1.021107
 C        -1.767376         1.009360         0.475027
 C        -1.959595         1.605463         1.892008
 C        -0.704382         2.446042         1.574914
 O        -3.017044         2.193662         2.695200
 C        -2.249826         1.604545         3.784368
 C        -1.513973         0.581174         2.933251
 C        -0.151611         0.264470         2.409310
 H         1.062340        -0.119114         0.353712
 H        -1.829507         1.718589        -0.323828
 H        -2.351570         0.192113         0.169496
 H        -0.881579         3.276133         0.870610
 H         0.061807         2.872417         2.329288
 H        -1.543117         2.272593         4.302644
 H        -3.049075         1.192252         4.481079
 H        -2.168567        -0.320920         2.792286
 H         0.643911         0.626851         2.996849
 H         0.141606        -0.816027         2.327503
