19
Iteration:   871charge 0 multiplicity 1
 O         0.855535         0.814316         0.136469
 C        -0.232156         0.903330         1.066130
 C        -1.681660         0.833155         0.541964
 C        -1.911175         1.764107         1.851079
 C        -0.508928         2.369017         1.609175
 O        -3.006462         2.317272         2.748512
 C        -2.351757         1.671599         3.799445
 C        -1.648978         0.655115         2.881946
 C        -0.309041         0.090183         2.321472
 H         1.100928         1.782074        -0.043503
 H        -1.723248         1.498084        -0.320309
 H        -2.279146        -0.077775         0.499030
 H        -0.355096         3.173707         0.619743
 H         0.057325         2.670782         2.441826
 H        -1.487808         2.225460         4.265197
 H        -3.119036         1.256883         4.494785
 H        -2.329465        -0.212191         2.719249
 H         0.524738         0.309776         3.024205
 H        -0.313323        -0.950997         2.089367
