19
Iteration:  1951charge 0 multiplicity 1
 O         0.883190         0.881470         0.136175
 C        -0.232785         0.959055         1.099585
 C        -1.804514         0.949019         0.462558
 C        -2.009534         1.674042         1.773599
 C        -0.632899         2.399951         1.588138
 O        -3.120711         2.172252         2.785068
 C        -2.204741         1.669086         3.821913
 C        -1.550668         0.670038         2.834945
 C        -0.118321         0.197613         2.422136
 H         1.088084        -0.036402         0.009046
 H        -1.715804         1.414948        -0.546953
 H        -2.149244        -0.119081         0.295361
 H        -0.702326         3.204683         0.906705
 H        -0.179285         2.841648         2.430039
 H        -1.553404         2.347742         4.339382
 H        -2.886052         1.219688         4.464673
 H        -2.193503        -0.195913         2.741447
 H         0.830773         0.355994         3.032983
 H        -0.164030        -0.889578         2.355628
