19
Iteration:  4672charge 0 multiplicity 1
 O         0.868174         0.796333         0.223601
 C        -0.244106         0.999704         1.045809
 C        -1.786234         0.822620         0.486364
 C        -2.039533         1.541129         1.872466
 C        -0.663487         2.377923         1.550823
 O        -2.926621         2.376830         2.687167
 C        -2.337447         1.625184         3.879028
 C        -1.608742         0.582581         2.903121
 C        -0.059723         0.315825         2.370841
 H         0.754078         1.189458        -0.625925
 H        -1.880137         1.178181        -0.583620
 H        -2.111452        -0.166913         0.286770
 H        -0.877852         3.085125         0.744297
 H        -0.040485         2.721426         2.241080
 H        -1.754897         2.376039         4.424544
 H        -3.126786         1.258358         4.517699
 H        -2.135073        -0.404579         2.879674
 H         0.830215         0.752222         2.950564
 H         0.089204        -0.716766         2.101434
