19
Iteration:   357
 O         0.897031         0.765109         0.202374
 C        -0.255546         0.979493         0.991595
 C        -1.685476         1.089365         0.468304
 C        -1.951568         1.703481         1.869028
 C        -0.520328         2.338867         1.738961
 O        -3.047254         2.320359         2.643276
 C        -2.270247         1.705276         3.782423
 C        -1.684826         0.536662         2.867336
 C        -0.315449         0.071749         2.326347
 H         1.408465        -0.000463         0.588345
 H        -1.644362         1.749972        -0.419492
 H        -2.206622         0.127656         0.195997
 H        -0.715179         3.300386         1.196949
 H         0.187319         2.660262         2.403065
 H        -1.593315         2.421718         4.262287
 H        -2.945805         1.311015         4.539234
 H        -2.438663        -0.266183         2.922364
 H         0.606565         0.382979         2.812148
 H        -0.120066        -0.928504         2.237338
