19
Iteration:  3221
 O         0.903233         0.840385         0.206751
 C        -0.262675         0.985092         0.998309
 C        -1.718938         0.793567         0.464641
 C        -1.990030         1.623506         1.810035
 C        -0.561657         2.385902         1.506354
 O        -3.022277         2.248420         2.726799
 C        -2.238935         1.674667         3.877417
 C        -1.654357         0.615150         2.928237
 C        -0.239287         0.247577         2.406506
 H         0.880621         1.443696        -0.536878
 H        -1.985139         1.352284        -0.403433
 H        -2.242294        -0.131003         0.455039
 H        -0.714415         3.183489         0.752880
 H        -0.078026         2.670530         2.417848
 H        -1.463363         2.436442         4.130241
 H        -2.890465         1.421457         4.768945
 H        -2.394486        -0.204585         2.998137
 H         0.656831         0.591904         3.100823
 H         0.064898        -0.873509         2.284879
