19
Iteration:  2397
 O         0.769493         0.868571         0.251453
 C        -0.224981         1.074298         1.074138
 C        -1.850153         0.961969         0.525102
 C        -1.927999         1.658788         1.843256
 C        -0.668802         2.463351         1.531557
 O        -2.888412         2.265548         2.647489
 C        -2.236149         1.576693         3.781357
 C        -1.586547         0.516996         2.851135
 C        -0.178660         0.132768         2.373670
 H         1.260030         0.055245         0.582206
 H        -2.088967         1.682003        -0.264539
 H        -2.324673         0.020229         0.527899
 H        -0.747765         3.088949         0.588383
 H        -0.078393         2.914860         2.414938
 H        -1.502989         2.277000         4.209719
 H        -2.941278         1.176811         4.491694
 H        -2.298955        -0.297305         2.759484
 H         0.587852         0.528005         3.095902
 H         0.055619        -0.982221         2.246619
