19
Iteration:   559
 O         0.832251         0.777528         0.262403
 C        -0.300234         0.956974         1.073346
 C        -1.767099         0.911518         0.434962
 C        -1.874803         1.707656         1.783552
 C        -0.512007         2.388824         1.541615
 O        -2.960550         2.314398         2.696998
 C        -2.260628         1.616706         3.852440
 C        -1.672614         0.633455         2.759510
 C        -0.297542         0.133923         2.463902
 H         1.487631         1.471273         0.398388
 H        -1.821124         1.549137        -0.425343
 H        -2.318506         0.007390         0.319718
 H        -0.550704         2.959432         0.678158
 H         0.206753         2.820919         2.365234
 H        -1.537923         2.237562         4.378286
 H        -2.956656         1.248617         4.637259
 H        -2.416924        -0.150949         2.682170
 H         0.488712         0.397260         3.110725
 H        -0.373227        -0.980634         2.392719
