19
Iteration:  3950
 O         0.910453         0.724030         0.259978
 C        -0.259167         1.009262         1.087525
 C        -1.777747         0.950482         0.483295
 C        -1.951009         1.628601         1.805076
 C        -0.620600         2.431173         1.431463
 O        -3.039286         2.166184         2.668110
 C        -2.218536         1.612099         3.914569
 C        -1.559987         0.658065         2.921743
 C        -0.214349         0.275124         2.459951
 H         0.706821         1.151582        -0.654758
 H        -1.794417         1.471379        -0.484699
 H        -2.345269        -0.060266         0.200387
 H        -0.965797         3.085419         0.533397
 H         0.097289         2.993634         2.170255
 H        -1.556952         2.581288         4.182678
 H        -2.935174         1.356737         4.750224
 H        -2.250689        -0.213020         2.753042
 H         0.622925         0.586694         3.009797
 H        -0.357628        -0.762495         2.258816
