19
Iteration:  2521
 O         0.782516         0.677997         0.137270
 C        -0.219670         1.020009         1.081766
 C        -1.659462         0.968349         0.447369
 C        -1.959579         1.636594         1.848295
 C        -0.648169         2.426679         1.460704
 O        -2.952515         2.183016         2.745672
 C        -2.256374         1.596329         3.916181
 C        -1.637167         0.654662         2.880882
 C        -0.226250         0.261455         2.432593
 H         1.438030         1.460141         0.124480
 H        -1.823157         1.583285        -0.350556
 H        -2.189744         0.036161         0.315618
 H        -0.967192         3.065296         0.622100
 H         0.064278         3.235411         1.860494
 H        -1.770790         2.399718         4.407740
 H        -2.950785         1.168580         4.624001
 H        -2.387611        -0.137249         2.791191
 H         0.564799         0.656612         3.151534
 H        -0.040389        -0.804802         2.316094
