19
Iteration:  4825
 O         0.978601         0.788554         0.204687
 C        -0.284639         0.979189         1.005795
 C        -1.777202         0.810206         0.473604
 C        -1.913883         1.692340         1.909203
 C        -0.773382         2.417135         1.485532
 O        -2.977636         2.282338         2.690747
 C        -2.338928         1.596437         3.943432
 C        -1.551543         0.624446         2.914138
 C        -0.140608         0.291831         2.353168
 H         0.745933         0.100988        -0.524762
 H        -1.978974         1.592009        -0.293616
 H        -2.146968        -0.183554         0.559172
 H        -0.989967         3.171870         0.592719
 H        -0.238285         2.999119         2.277261
 H        -1.687662         2.433727         4.404446
 H        -3.150973         1.239531         4.515055
 H        -2.147001        -0.332554         2.830428
 H         0.717079         0.856232         2.818034
 H         0.168091        -0.728598         2.282153
