19
Iteration:  4823charge 0 multiplicity 1
 O         0.978497         0.790496         0.205001
 C        -0.260922         0.990709         1.004116
 C        -1.800745         0.807428         0.473188
 C        -1.915212         1.687947         1.890990
 C        -0.761657         2.404039         1.476519
 O        -2.982447         2.287671         2.707202
 C        -2.350140         1.599043         3.936272
 C        -1.558850         0.622970         2.918847
 C        -0.122207         0.294287         2.355764
 H         0.770631         0.162351        -0.532571
 H        -2.002570         1.526626        -0.327351
 H        -2.189930        -0.147776         0.623505
 H        -0.975842         3.166970         0.560855
 H        -0.188369         2.994746         2.336327
 H        -1.752881         2.373507         4.387359
 H        -3.112468         1.242936         4.549228
 H        -2.132953        -0.294803         2.819411
 H         0.705871         0.822193         2.825993
 H         0.123267        -0.751916         2.299611
