19
Iteration:  4520
 O         0.826427         0.713049         0.252482
 C        -0.277603         1.023965         1.030986
 C        -1.771323         0.932291         0.474721
 C        -1.949269         1.569963         1.823804
 C        -0.707049         2.439880         1.600029
 O        -2.984913         2.163400         2.606745
 C        -2.156857         1.730203         3.839482
 C        -1.607277         0.561922         2.942933
 C        -0.178299         0.290219         2.393200
 H         0.885601         1.322453        -0.458267
 H        -1.717736         1.639018        -0.359525
 H        -2.170368         0.005590         0.380491
 H        -0.960770         3.300077         0.859349
 H        -0.098512         2.841099         2.511398
 H        -1.460446         2.503559         4.024784
 H        -2.848334         1.323607         4.648502
 H        -2.208552        -0.334260         2.964877
 H         0.675585         0.731891         2.994340
 H         0.146856        -0.728599         2.227971
