19
Iteration:  4519
 O         0.821905         0.714369         0.256708
 C        -0.277772         1.012025         1.027035
 C        -1.774567         0.938614         0.479345
 C        -1.953313         1.564196         1.818850
 C        -0.697080         2.448038         1.607490
 O        -2.984731         2.159975         2.604166
 C        -2.160227         1.727674         3.833378
 C        -1.597658         0.562163         2.937845
 C        -0.179846         0.288437         2.399857
 H         0.872670         1.336761        -0.486667
 H        -1.738444         1.674844        -0.365852
 H        -2.165294        -0.021479         0.375745
 H        -0.955588         3.326957         0.858494
 H        -0.085898         2.837516         2.486557
 H        -1.494013         2.535515         4.076252
 H        -2.810428         1.361676         4.649247
 H        -2.218748        -0.343228         2.979333
 H         0.669218         0.764357         2.980669
 H         0.152779        -0.748113         2.230139
