19
Iteration:   628charge 0 multiplicity 1
 O         0.780136         0.685715         0.127963
 C        -0.123953         0.972477         1.080717
 C        -1.671900         0.930334         0.526240
 C        -1.974275         1.717819         1.853367
 C        -0.510683         2.423287         1.622442
 O        -2.991315         2.343750         2.670042
 C        -2.409632         1.630350         3.814919
 C        -1.636001         0.648167         2.838149
 C        -0.201453         0.107885         2.413735
 H         1.497540         1.278690         0.175501
 H        -1.848119         1.568872        -0.323601
 H        -2.230919         0.019350         0.383345
 H        -0.706410         3.102063         0.770208
 H        -0.093305         2.994623         2.427309
 H        -1.830482         2.259101         4.457731
 H        -3.166399         1.181223         4.423951
 H        -2.396766        -0.116896         2.696812
 H         0.713572         0.245945         3.036997
 H        -0.286261        -0.949828         2.188199
