19
Iteration:  1525
 O         0.877081         0.882884         0.276608
 C        -0.282216         0.981347         0.996738
 C        -1.827148         0.892572         0.471112
 C        -1.997362         1.616212         1.807439
 C        -0.712513         2.370354         1.485129
 O        -2.898160         2.323760         2.711792
 C        -2.215697         1.611565         3.792547
 C        -1.608243         0.560382         2.957206
 C        -0.186826         0.264503         2.436818
 H         1.007558        -0.010092        -0.140103
 H        -1.786651         1.379842        -0.507074
 H        -2.147923        -0.156504         0.447631
 H        -0.839837         3.252630         0.687224
 H        -0.040714         2.725057         2.352675
 H        -1.522277         2.309057         4.156122
 H        -2.955212         1.376896         4.565944
 H        -2.196647        -0.363015         2.761468
 H         0.719529         0.686631         2.890585
 H        -0.002969        -0.840363         2.413741
