19
Iteration:   535
 O         0.925403         0.746577         0.171636
 C        -0.211071         1.009321         1.042270
 C        -1.688541         0.858871         0.469167
 C        -1.953571         1.663224         1.829888
 C        -0.660208         2.341976         1.639577
 O        -2.925558         2.436136         2.688741
 C        -2.324226         1.717767         3.874724
 C        -1.708134         0.550089         2.861075
 C        -0.266397         0.093536         2.308479
 H         1.702826         1.389830         0.106970
 H        -1.700096         1.389370        -0.508969
 H        -2.284298        -0.071930         0.439278
 H        -0.858110         3.210604         0.948623
 H        -0.205415         2.707122         2.686096
 H        -1.624374         2.367365         4.461259
 H        -3.160467         1.509911         4.593298
 H        -2.417227        -0.288728         2.969768
 H         0.576328         0.223966         2.988495
 H        -0.339224        -0.956922         2.043830
