19
Iteration:  1766charge 0 multiplicity 1
 O         0.855484         0.886038         0.206333
 C        -0.200249         0.972751         1.036566
 C        -1.864593         0.881573         0.443397
 C        -1.963684         1.673512         1.797921
 C        -0.681640         2.352602         1.531153
 O        -2.944797         2.308934         2.759745
 C        -2.312303         1.599261         3.811799
 C        -1.555325         0.567324         2.906255
 C        -0.126536         0.271793         2.394587
 H         1.124721         0.018017        -0.012743
 H        -2.106529         1.452911        -0.424070
 H        -2.227962        -0.151860         0.492586
 H        -0.824447         3.173304         0.751538
 H        -0.041993         2.815558         2.386950
 H        -1.590651         2.104961         4.600006
 H        -3.204039         1.212618         4.356159
 H        -2.185976        -0.334183         2.899640
 H         0.686555         0.726474         3.024699
 H         0.190725        -0.733147         2.209374
