19
Iteration:  3067
 O         0.905056         0.789761         0.255959
 C        -0.312533         0.945661         0.992946
 C        -1.736690         0.881550         0.452032
 C        -2.012602         1.703309         1.809605
 C        -0.628257         2.363449         1.522838
 O        -3.111960         2.130667         2.721266
 C        -2.149762         1.716389         3.900417
 C        -1.625442         0.669623         2.906916
 C        -0.160525         0.221073         2.423933
 H         1.094567         1.581037        -0.338246
 H        -1.766055         1.520487        -0.450387
 H        -2.260087        -0.107692         0.256630
 H        -0.603029         3.103616         0.702701
 H         0.088976         2.872492         2.135510
 H        -1.590974         2.727220         4.045604
 H        -2.681438         1.286008         4.756567
 H        -2.120322        -0.299908         2.965238
 H         0.745059         0.658453         2.808429
 H        -0.155362        -0.870692         2.188374
