19
Iteration:  3289
 O         0.861292         0.694367         0.179418
 C        -0.198105         0.975142         1.043587
 C        -1.759449         0.925866         0.496548
 C        -1.909933         1.679463         1.793574
 C        -0.658581         2.440245         1.535751
 O        -3.071800         2.166232         2.708559
 C        -2.206535         1.653780         3.842151
 C        -1.608707         0.643828         2.907143
 C        -0.203859         0.286595         2.445644
 H         0.806682         1.380414        -0.578701
 H        -1.904675         1.604237        -0.387155
 H        -2.434987         0.152003         0.386313
 H        -0.625666         3.026625         0.681625
 H        -0.154038         2.802621         2.428873
 H        -1.504310         2.350653         4.350256
 H        -2.962326         1.130132         4.556426
 H        -2.198199        -0.236831         2.753448
 H         0.681368         0.784017         2.991206
 H         0.143770        -0.810798         2.640922
