19
Iteration:  2986
 O         0.876938         0.726890         0.194077
 C        -0.191031         1.012718         1.059788
 C        -1.829324         0.945926         0.535819
 C        -1.931811         1.716621         1.846839
 C        -0.621576         2.453314         1.430916
 O        -3.032461         2.184505         2.631845
 C        -2.276684         1.553337         3.876735
 C        -1.547841         0.684228         2.914937
 C        -0.177610         0.234631         2.498359
 H         0.633549         1.006193        -0.684079
 H        -1.922327         1.436339        -0.374872
 H        -2.379572         0.054100         0.505995
 H        -1.066996         3.051302         0.647629
 H         0.022100         2.852871         2.229784
 H        -1.684873         2.267726         4.473046
 H        -3.093606         1.205640         4.540186
 H        -2.051259        -0.288966         2.756737
 H         0.729439         0.628843         3.112932
 H         0.154268        -0.787929         2.421252
