19
Iteration:   352charge 0 multiplicity 1
 O         0.921468         0.774461         0.183664
 C        -0.237229         0.970088         0.987068
 C        -1.744322         1.077751         0.427104
 C        -1.927407         1.687387         1.838295
 C        -0.530246         2.357066         1.732640
 O        -3.010577         2.289729         2.690546
 C        -2.300791         1.687321         3.790855
 C        -1.664949         0.559702         2.865398
 C        -0.347454         0.102326         2.355361
 H         1.384177         0.104805         0.733395
 H        -1.552380         1.689978        -0.461985
 H        -2.222069         0.131115         0.255062
 H        -0.677631         3.254174         1.115052
 H         0.333893         2.578823         2.511986
 H        -1.513812         2.358321         4.184964
 H        -3.077371         1.513067         4.578661
 H        -2.498738        -0.156054         2.740168
 H         0.513010         0.498374         2.939878
 H        -0.299149        -1.075578         2.251000
