19
Iteration:  4523charge 0 multiplicity 1
 O         0.841919         0.704305         0.243213
 C        -0.273487         1.065090         1.046601
 C        -1.751382         0.920188         0.466995
 C        -1.944503         1.591090         1.844875
 C        -0.731905         2.417717         1.578164
 O        -2.987585         2.176688         2.619906
 C        -2.159334         1.724573         3.854202
 C        -1.628444         0.568443         2.953025
 C        -0.168605         0.298159         2.375816
 H         0.941178         1.362058        -0.468875
 H        -1.694920         1.529190        -0.384472
 H        -2.261810        -0.063342         0.344083
 H        -0.955206         3.158039         0.893013
 H        -0.194843         2.820452         2.495405
 H        -1.314783         2.446895         3.916714
 H        -2.906880         1.276233         4.607346
 H        -2.220449        -0.329728         2.920415
 H         0.657902         0.623350         3.014706
 H         0.108602        -0.729554         2.220730
