19
Iteration:   192charge 0 multiplicity 1
 O         0.928496         0.868301         0.388751
 C        -0.260989         0.904128         1.053177
 C        -1.773780         1.042868         0.405603
 C        -1.932381         1.705877         1.814813
 C        -0.558460         2.326185         1.609371
 O        -2.869445         2.423182         2.654950
 C        -2.302890         1.526728         3.773845
 C        -1.699554         0.583884         2.874756
 C        -0.357140         0.075270         2.378040
 H         0.953616         0.391226        -0.500048
 H        -1.761067         1.874587        -0.383603
 H        -2.390759         0.143799         0.114998
 H        -0.365796         3.210147         0.898610
 H        -0.046481         2.518758         2.507463
 H        -1.558723         2.170549         4.295864
 H        -3.051246         1.252421         4.549920
 H        -2.373849        -0.256684         2.622940
 H         0.569368         0.259712         2.962560
 H        -0.354517        -0.978204         2.127163
