19
Iteration:  4638
 O         0.834555         0.689711         0.181136
 C        -0.250686         1.003038         1.088565
 C        -1.771938         0.943926         0.539397
 C        -1.908980         1.761121         1.860495
 C        -0.566474         2.522417         1.523369
 O        -3.087944         2.033502         2.671552
 C        -2.323758         1.659848         3.895509
 C        -1.551438         0.658103         2.841929
 C        -0.121516         0.250463         2.420329
 H         0.581142         1.028603        -0.712448
 H        -1.764111         1.538548        -0.416759
 H        -2.203834        -0.008259         0.631703
 H        -0.643120         3.143644         0.615442
 H         0.029406         2.991044         2.142218
 H        -1.642165         2.513072         4.087422
 H        -2.884701         1.314656         4.687852
 H        -2.278872        -0.188967         2.747137
 H         0.727698         0.540215         3.083103
 H         0.006500        -0.820401         2.264192
