19
Iteration:  1012
 O         0.844290         0.770392         0.116273
 C        -0.250036         0.982992         1.096228
 C        -1.692351         0.908000         0.494458
 C        -1.975810         1.659314         1.823231
 C        -0.569006         2.404662         1.559550
 O        -3.006451         2.334077         2.706792
 C        -2.196230         1.639850         3.855119
 C        -1.718293         0.583091         2.867961
 C        -0.249941         0.130738         2.401177
 H         1.272666         1.689491         0.112728
 H        -1.647615         1.578892        -0.343525
 H        -2.196994        -0.058442         0.319289
 H        -0.655090         3.105688         0.757491
 H        -0.159665         2.880359         2.552991
 H        -1.394533         2.393290         4.131837
 H        -2.859157         1.268541         4.703674
 H        -2.373495        -0.312893         2.820116
 H         0.548742         0.268688         3.207831
 H        -0.185617        -0.971177         2.194054
