19
Iteration:  4349charge 0 multiplicity 1
 O         0.872149         0.849229         0.176406
 C        -0.263859         0.925830         1.014741
 C        -1.753762         0.895288         0.516572
 C        -1.925418         1.596037         1.876720
 C        -0.637014         2.326043         1.576218
 O        -3.008448         2.217019         2.650545
 C        -2.312503         1.765386         3.830833
 C        -1.590573         0.579550         2.894333
 C        -0.140839         0.242876         2.433631
 H         0.512349         1.190774        -0.735342
 H        -1.947692         1.522827        -0.333950
 H        -2.310522        -0.151718         0.565032
 H        -0.640957         3.084024         0.813654
 H         0.177271         2.724852         2.228334
 H        -1.601957         2.454046         4.287267
 H        -2.991682         1.636108         4.569090
 H        -2.196853        -0.319634         2.867275
 H         0.559999         0.816818         3.042623
 H         0.048686        -0.775454         2.550727
