19
Iteration:  3194charge 0 multiplicity 1
 O         0.856824         0.684441         0.223505
 C        -0.237848         1.019070         1.044288
 C        -1.762791         0.905710         0.513302
 C        -1.984194         1.655502         1.821838
 C        -0.693220         2.457645         1.527684
 O        -3.037433         2.202400         2.671612
 C        -2.195668         1.628225         3.828263
 C        -1.573936         0.634481         2.848011
 C        -0.120954         0.256760         2.458128
 H         0.968634         1.307227        -0.510412
 H        -1.877648         1.700639        -0.283118
 H        -2.421513        -0.046045         0.405322
 H        -0.949629         3.222275         0.754364
 H        -0.192308         2.851029         2.474284
 H        -1.518434         2.398909         4.197663
 H        -2.832773         1.283332         4.636149
 H        -2.326547        -0.201779         2.781691
 H         0.638688         0.574539         3.152628
 H         0.163855        -0.757291         2.374011
