19
Iteration:  2249charge 0 multiplicity 1
 O         0.713059         0.911271         0.094844
 C        -0.253326         0.996001         1.071505
 C        -1.700789         0.894041         0.520159
 C        -1.910151         1.590736         1.879994
 C        -0.593826         2.417491         1.548326
 O        -2.974444         2.272214         2.641746
 C        -2.214526         1.579492         3.856374
 C        -1.609529         0.557323         2.886572
 C        -0.225650         0.201167         2.407546
 H         1.594594         0.796183         0.556342
 H        -1.993111         1.592628        -0.296803
 H        -2.241147        -0.124883         0.253663
 H        -0.790699         3.035033         0.687382
 H         0.066307         2.952535         2.168194
 H        -1.564101         2.377684         4.410944
 H        -3.007267         1.236406         4.597531
 H        -2.263888        -0.347224         2.976030
 H         0.480290         0.784078         3.094187
 H        -0.071114        -0.851572         2.514731
