19
Iteration:  3238
 O         0.875465         0.837519         0.236224
 C        -0.270167         1.008390         1.063070
 C        -1.802259         0.845335         0.543197
 C        -1.956583         1.636228         1.851370
 C        -0.743753         2.396761         1.556793
 O        -2.928119         2.268149         2.608115
 C        -2.202172         1.692796         3.819369
 C        -1.574196         0.639588         2.898647
 C        -0.176467         0.116768         2.401688
 H         0.701911         1.527375        -0.437096
 H        -1.765888         1.504485        -0.362823
 H        -2.066915        -0.302453         0.532354
 H        -0.974366         3.036302         0.638065
 H        -0.168857         3.008756         2.335561
 H        -1.652479         2.484640         4.356631
 H        -2.913787         1.250241         4.510586
 H        -2.122419        -0.325220         2.779680
 H         0.660746         0.248803         3.032523
 H        -0.206038        -0.933882         2.299433
