19
Iteration:  2402
 O         0.759415         0.866095         0.276383
 C        -0.262822         1.103877         1.096685
 C        -1.864152         0.941093         0.531335
 C        -1.928945         1.664408         1.834720
 C        -0.651134         2.445673         1.582703
 O        -2.897850         2.292204         2.613715
 C        -2.210562         1.573814         3.761087
 C        -1.527344         0.462111         2.816111
 C        -0.173182         0.138176         2.361778
 H         1.188001         0.120470         0.631214
 H        -2.220869         1.593982        -0.290160
 H        -2.428031        -0.052252         0.596261
 H        -0.774670         3.097928         0.718282
 H        -0.064432         2.957101         2.364367
 H        -1.432323         2.215214         4.203040
 H        -2.954051         1.410414         4.604119
 H        -2.327567        -0.288119         2.607701
 H         0.541620         0.570149         3.092033
 H         0.045433        -0.881274         2.215734
