19
Iteration:  2668
 O         0.739684         0.767460         0.001982
 C        -0.193883         0.990730         1.074479
 C        -1.767944         0.817771         0.532958
 C        -1.933569         1.671000         1.851884
 C        -0.617366         2.433471         1.452839
 O        -2.967493         2.234625         2.700007
 C        -2.301728         1.614486         3.840589
 C        -1.639808         0.588457         2.915517
 C        -0.134056         0.348825         2.586733
 H         1.596218         0.921514         0.370939
 H        -1.913226         1.386016        -0.468589
 H        -2.191665        -0.184055         0.715497
 H        -0.845243         3.093091         0.574746
 H         0.038025         2.874473         2.179348
 H        -1.587207         2.312477         4.214236
 H        -3.000381         1.215160         4.592825
 H        -2.180700        -0.381134         2.711531
 H         0.496540         1.035439         3.104402
 H         0.224466        -0.665376         2.509318
