19
Iteration:  1451charge 0 multiplicity 1
 O         0.840494         0.821501         0.031212
 C        -0.245374         1.006178         1.047263
 C        -1.766346         0.843530         0.553638
 C        -1.999085         1.649828         1.849217
 C        -0.678574         2.362407         1.637643
 O        -2.920136         2.282063         2.661262
 C        -2.317151         1.691817         3.800019
 C        -1.584058         0.615463         2.906902
 C        -0.172651         0.250476         2.440089
 H         1.460090         0.205688         0.472338
 H        -1.801019         1.434754        -0.363322
 H        -2.284508        -0.121705         0.554968
 H        -0.651940         3.096838         0.899646
 H        -0.175189         2.789903         2.419292
 H        -1.560409         2.343765         4.317423
 H        -3.198643         1.422743         4.446978
 H        -2.019369        -0.362906         2.847991
 H         0.692616         0.525612         3.108431
 H        -0.092790        -0.801207         2.192563
