19
Iteration:  4917
 O         0.923672         0.885378         0.140833
 C        -0.206021         1.020050         1.011766
 C        -1.704774         0.770403         0.541336
 C        -2.006413         1.580430         1.869414
 C        -0.800082         2.400176         1.485875
 O        -2.993438         2.345964         2.690689
 C        -2.282596         1.729943         3.858339
 C        -1.560184         0.625394         2.941630
 C        -0.119792         0.175485         2.393649
 H         1.011708        -0.009730        -0.136334
 H        -1.847138         1.409141        -0.273647
 H        -2.187737        -0.230535         0.587741
 H        -1.153608         2.997072         0.747458
 H        -0.483054         2.995057         2.255127
 H        -1.605305         2.404105         4.486597
 H        -2.972132         1.045296         4.567390
 H        -2.183811        -0.313339         2.877715
 H         0.700605         0.540281         3.007739
 H        -0.060965        -0.928206         2.151378
