19
Iteration:  1851charge 0 multiplicity 1
 O         0.788021         0.861326         0.179087
 C        -0.222640         1.060349         1.094246
 C        -1.789980         0.967408         0.543673
 C        -1.972781         1.576619         1.857773
 C        -0.598891         2.488645         1.636483
 O        -2.974011         2.101229         2.574229
 C        -2.270074         1.707456         3.824629
 C        -1.556350         0.607908         2.934175
 C        -0.157587         0.171583         2.342244
 H         0.615395        -0.064607        -0.203623
 H        -1.814055         1.790050        -0.192978
 H        -2.469970         0.021934         0.373178
 H        -0.956214         3.081304         0.824616
 H         0.119532         2.804154         2.344472
 H        -1.519181         2.425644         4.094313
 H        -2.968908         1.525796         4.578726
 H        -2.123755        -0.349254         2.942338
 H         0.714124         0.601257         2.902906
 H         0.137124        -0.974295         2.285041
