19
Iteration:  1818
 O         0.897858         0.948078         0.159199
 C        -0.228515         0.985747         1.040607
 C        -1.694239         0.838358         0.507645
 C        -2.047474         1.621686         1.810080
 C        -0.629563         2.353362         1.568263
 O        -3.052587         2.208446         2.750617
 C        -2.210338         1.703910         3.927058
 C        -1.642324         0.658300         2.858018
 C        -0.193820         0.175238         2.319297
 H         0.931482         0.032353        -0.130391
 H        -1.739886         1.464079        -0.414187
 H        -2.309229        -0.093778         0.210849
 H        -0.657570         3.182243         0.856118
 H         0.090405         2.738262         2.282491
 H        -1.494504         2.459646         4.172020
 H        -2.838122         1.481476         4.760528
 H        -2.302678        -0.249486         2.932675
 H         0.618746         0.652428         2.880903
 H        -0.131677        -0.984187         2.323924
