19
Iteration:  4732
 O         0.864609         0.714522         0.232503
 C        -0.289792         0.988622         1.018616
 C        -1.808744         0.901371         0.504870
 C        -1.947388         1.667766         1.867544
 C        -0.663207         2.451922         1.529439
 O        -3.056211         2.083579         2.692170
 C        -2.260543         1.790012         3.814278
 C        -1.500348         0.613918         2.924786
 C        -0.136699         0.216180         2.331485
 H         1.122936         1.592357         0.082375
 H        -1.842247         1.619627        -0.245530
 H        -2.305962        -0.123647         0.525320
 H        -0.678901         3.192962         0.714137
 H         0.051549         2.986449         2.343933
 H        -1.726401         2.604495         4.027927
 H        -2.840417         1.404748         4.697946
 H        -2.258035        -0.127527         2.760169
 H         0.700268         0.628128         2.864409
 H         0.058174        -0.898862         2.344437
