19
Iteration:   670charge 0 multiplicity 1
 O         0.819999         0.781674         0.191192
 C        -0.236274         0.957011         1.087571
 C        -1.722770         0.957572         0.401834
 C        -1.935578         1.622751         1.814506
 C        -0.592258         2.288620         1.590557
 O        -2.996739         2.378397         2.740961
 C        -2.271563         1.664063         3.805542
 C        -1.717891         0.629196         2.822561
 C        -0.219458         0.169968         2.397208
 H         1.664285         1.032291         0.570583
 H        -1.690442         1.516978        -0.501415
 H        -2.131232        -0.006077         0.305607
 H        -0.701342         3.108071         0.897948
 H         0.138979         2.507126         2.573548
 H        -1.487156         2.318825         4.218481
 H        -2.919869         1.285367         4.591953
 H        -2.311030        -0.252771         2.765857
 H         0.498358         0.571995         3.065604
 H         0.045876        -0.889998         2.357111
