19
Iteration:  2603
 O         0.849214         0.811034         0.093010
 C        -0.186991         0.971285         1.091244
 C        -1.717862         0.851742         0.574000
 C        -1.969135         1.664852         1.836567
 C        -0.649212         2.462405         1.561137
 O        -3.033481         2.209930         2.656421
 C        -2.151712         1.705573         3.820584
 C        -1.638770         0.542964         2.897896
 C        -0.196121         0.208749         2.474372
 H         0.425968         1.199648        -0.717427
 H        -1.917106         1.358862        -0.483542
 H        -2.141592        -0.202743         0.601521
 H        -0.908802         3.034824         0.671168
 H        -0.191169         2.902626         2.400033
 H        -1.481991         2.593432         4.005517
 H        -2.785604         1.428793         4.664035
 H        -2.513997        -0.159959         2.927495
 H         0.483125         0.692014         3.169223
 H         0.040819        -0.858333         2.503625
