19
Iteration:  3779charge 0 multiplicity 1
 O         0.820465         0.780627         0.222438
 C        -0.258251         1.001468         1.016810
 C        -1.717326         0.803734         0.548179
 C        -1.923888         1.674143         1.842856
 C        -0.669484         2.326430         1.595638
 O        -3.022836         2.296115         2.606079
 C        -2.263256         1.645055         3.820846
 C        -1.526336         0.699047         2.929743
 C        -0.180225         0.232343         2.403682
 H         0.884114         1.390584        -0.466703
 H        -2.052698         1.378142        -0.376405
 H        -2.181100        -0.121985         0.728380
 H        -0.862232         2.985791         0.748270
 H        -0.113134         2.931347         2.394936
 H        -1.707063         2.370138         4.371255
 H        -2.980795         1.117131         4.437391
 H        -2.234326        -0.135302         2.714741
 H         0.861957         0.459388         2.820433
 H         0.027432        -0.969407         2.282317
