19
Iteration:  3682
 O         0.906368         0.748489         0.204032
 C        -0.194611         1.028572         1.022497
 C        -1.764029         0.834785         0.532634
 C        -1.891121         1.616644         1.886790
 C        -0.700914         2.403609         1.425393
 O        -2.955729         2.239922         2.699726
 C        -2.343608         1.656629         3.848123
 C        -1.640327         0.648665         2.970229
 C        -0.185686         0.287331         2.354092
 H         0.756078         1.132715        -0.628421
 H        -1.838051         1.650324        -0.302963
 H        -2.276256        -0.103410         0.486333
 H        -0.516112         2.997039         0.481423
 H        -0.116997         2.809777         2.405421
 H        -1.730506         2.301003         4.567915
 H        -3.193828         1.178093         4.573398
 H        -2.352413        -0.214851         2.865225
 H         0.627934         0.665848         3.010542
 H         0.016647        -0.728862         2.407450
