19
Iteration:  3274charge 0 multiplicity 1
 O         0.919177         0.737697         0.169982
 C        -0.305618         0.960767         0.993549
 C        -1.753586         0.898688         0.539292
 C        -2.016409         1.670071         1.873669
 C        -0.603383         2.387711         1.579024
 O        -3.013806         2.202596         2.663519
 C        -2.245997         1.643994         3.891229
 C        -1.586115         0.665341         2.851512
 C        -0.180903         0.273399         2.416677
 H         0.982809         1.387025        -0.522947
 H        -1.926599         1.351594        -0.398530
 H        -1.988086        -0.190165         0.302630
 H        -0.972144         3.179485         0.827137
 H         0.030262         2.801140         2.370683
 H        -1.651563         2.510257         4.109182
 H        -2.804430         1.293486         4.700096
 H        -2.369251        -0.102716         2.893258
 H         0.591248         0.745617         3.110975
 H        -0.134266        -0.807103         2.335568
