19
Iteration:  2394
 O         0.798628         0.864110         0.223263
 C        -0.225044         1.043165         1.071513
 C        -1.835383         0.978557         0.529488
 C        -1.926669         1.652297         1.844444
 C        -0.663595         2.473895         1.511431
 O        -2.891898         2.248793         2.674006
 C        -2.244406         1.579628         3.795620
 C        -1.627788         0.557711         2.869317
 C        -0.179531         0.144988         2.388242
 H         1.275054         0.090717         0.487055
 H        -1.995628         1.712675        -0.360048
 H        -2.310995        -0.031710         0.428701
 H        -0.740377         3.062962         0.647422
 H        -0.160499         2.864922         2.308548
 H        -1.537167         2.315565         4.254612
 H        -2.979642         1.054686         4.480296
 H        -2.299683        -0.324075         2.817422
 H         0.595800         0.478342         3.027481
 H         0.013553        -0.964464         2.231797
