19
Iteration:  1300
 O         0.866478         0.690544         0.187294
 C        -0.203180         1.021540         0.991629
 C        -1.787739         0.816149         0.525110
 C        -1.962364         1.648335         1.829245
 C        -0.744164         2.463858         1.564145
 O        -2.938741         2.315498         2.680797
 C        -2.250288         1.656385         3.856024
 C        -1.559559         0.641913         2.944280
 C        -0.179789         0.217493         2.306431
 H         1.609661         1.146577         0.550082
 H        -1.948749         1.458029        -0.364435
 H        -2.382081        -0.098202         0.289721
 H        -1.153628         3.170593         0.787019
 H        -0.292689         2.828161         2.509290
 H        -1.655293         2.335799         4.439196
 H        -3.077772         1.237207         4.462436
 H        -2.236477        -0.216297         2.888005
 H         0.634600         0.528307         2.993981
 H        -0.153318        -0.856523         2.150005
