19
Iteration:   847charge 0 multiplicity 1
 O         0.802350         0.755989         0.140681
 C        -0.200485         1.076404         1.113825
 C        -1.693598         0.933563         0.453680
 C        -1.932195         1.643372         1.840424
 C        -0.647674         2.404406         1.705005
 O        -2.934416         2.299785         2.602875
 C        -2.172478         1.702030         3.828857
 C        -1.728796         0.596990         2.901016
 C        -0.283460         0.044984         2.396893
 H         1.398454         1.459939        -0.047662
 H        -1.828056         1.523233        -0.414931
 H        -2.081298        -0.051400         0.403952
 H        -0.767610         3.201023         0.842631
 H        -0.111477         2.780632         2.562923
 H        -1.345532         2.305752         4.378704
 H        -2.956104         1.210298         4.429720
 H        -2.534855        -0.100792         2.767712
 H         0.595751         0.118865         3.066373
 H        -0.414117        -0.941571         2.037321
