19
Iteration:  3949
 O         0.907623         0.727813         0.260713
 C        -0.257853         1.016375         1.077163
 C        -1.778010         0.947413         0.478306
 C        -1.951467         1.622625         1.808996
 C        -0.613026         2.437561         1.424597
 O        -3.046992         2.174454         2.669039
 C        -2.209603         1.620288         3.914350
 C        -1.557820         0.640873         2.929682
 C        -0.219938         0.268127         2.462910
 H         0.724623         1.148130        -0.622128
 H        -1.755058         1.458505        -0.463736
 H        -2.342650        -0.066812         0.210581
 H        -0.954573         3.102322         0.507382
 H         0.075998         2.983667         2.165356
 H        -1.597556         2.528014         4.165596
 H        -2.931191         1.328785         4.752399
 H        -2.264375        -0.195653         2.778181
 H         0.618166         0.578407         3.027646
 H        -0.347984        -0.728173         2.262202
