19
Iteration:  4360
 O         0.847163         0.818745         0.143244
 C        -0.186094         1.011280         1.027964
 C        -1.743337         0.870358         0.531967
 C        -1.991366         1.548350         1.836137
 C        -0.578400         2.301011         1.616738
 O        -3.033413         2.226711         2.623535
 C        -2.291454         1.802251         3.865301
 C        -1.607686         0.622699         2.961060
 C        -0.153474         0.226345         2.390558
 H         0.637211         1.213842        -0.723217
 H        -2.028291         1.534421        -0.259082
 H        -2.089435        -0.235300         0.300507
 H        -0.728759         3.047769         0.906203
 H        -0.173633         2.608609         2.611621
 H        -1.667085         2.650622         4.145542
 H        -2.918717         1.400633         4.582145
 H        -2.293530        -0.220577         3.042654
 H         0.685310         0.675330         2.927652
 H         0.118621        -0.773756         2.242984
