19
Iteration:  1320charge 0 multiplicity 1
 O         0.756012         0.828269         0.105808
 C        -0.260149         1.024100         1.054836
 C        -1.692298         0.765764         0.519224
 C        -2.031958         1.652320         1.864892
 C        -0.609069         2.362831         1.609568
 O        -2.952796         2.346954         2.669683
 C        -2.261210         1.703537         3.838365
 C        -1.644606         0.569398         2.841928
 C        -0.167996         0.205885         2.420459
 H         1.497144         1.403543         0.454108
 H        -1.881667         1.163794        -0.489556
 H        -1.915017        -0.332233         0.477435
 H        -0.452977         3.028023         0.650209
 H        -0.005516         2.706311         2.469565
 H        -1.496615         2.477499         4.183991
 H        -3.000481         1.297501         4.687382
 H        -2.312576        -0.327668         2.908515
 H         0.764887         0.514147         2.976533
 H        -0.112275        -0.915934         2.279204
