19
Iteration:  3903
 O         0.840754         0.818974         0.195968
 C        -0.248582         0.994708         1.068017
 C        -1.783752         0.771958         0.503203
 C        -2.008475         1.616656         1.784227
 C        -0.662606         2.391676         1.575722
 O        -2.969912         2.296360         2.594666
 C        -2.172627         1.684195         3.819385
 C        -1.597354         0.638057         2.949612
 C        -0.165361         0.209588         2.454924
 H         1.034919         1.564448        -0.311522
 H        -1.955805         1.325952        -0.419362
 H        -2.329595        -0.180849         0.368056
 H        -0.714649         3.322579         0.869332
 H        -0.142848         2.634029         2.481060
 H        -1.598598         2.358408         4.333757
 H        -2.962892         1.141382         4.435753
 H        -2.133594        -0.263008         3.158940
 H         0.640742         0.586572         3.095429
 H        -0.166173        -0.797992         2.276245
