19
Iteration:  1805charge 0 multiplicity 1
 O         0.851866         0.998772         0.181727
 C        -0.254482         0.965837         1.025241
 C        -1.729120         0.812495         0.452524
 C        -1.881691         1.652146         1.881964
 C        -0.596520         2.432384         1.507905
 O        -3.003596         2.269497         2.783276
 C        -2.227198         1.655082         3.808343
 C        -1.665453         0.535637         2.900723
 C        -0.272389         0.194747         2.398937
 H         1.146321         0.078895        -0.084995
 H        -1.858855         1.330883        -0.548562
 H        -2.089153        -0.249551         0.606230
 H        -0.836046         2.816689         0.533371
 H        -0.160093         3.041679         2.253871
 H        -1.504445         2.345874         4.161409
 H        -2.759936         1.224717         4.676353
 H        -2.517783        -0.200401         2.729286
 H         0.526760         0.528339         3.042080
 H        -0.058811        -0.956000         2.289204
