19
Iteration:  4205charge 0 multiplicity 1
 O         0.902725         0.781347         0.262992
 C        -0.258325         0.971439         1.033264
 C        -1.770614         0.904077         0.499349
 C        -1.969650         1.590383         1.869006
 C        -0.761296         2.375219         1.525073
 O        -3.011799         2.254122         2.627449
 C        -2.200033         1.729736         3.900753
 C        -1.590041         0.650207         2.928187
 C        -0.148745         0.178954         2.372961
 H         0.957904         1.239692        -0.591292
 H        -1.804023         1.413739        -0.524566
 H        -2.153212        -0.072527         0.280782
 H        -0.884283         3.018046         0.666421
 H        -0.020787         2.992611         2.264505
 H        -1.579496         2.524982         4.210026
 H        -2.786661         1.254480         4.582587
 H        -2.231786        -0.238490         2.949084
 H         0.652950         0.605555         2.894841
 H        -0.083577        -0.889164         2.286772
