19
Iteration:  1894
 O         0.857645         0.902791         0.098456
 C        -0.208910         0.943038         1.061181
 C        -1.796064         0.845114         0.538304
 C        -1.978615         1.716860         1.781842
 C        -0.685701         2.425682         1.493485
 O        -2.909982         2.296710         2.734351
 C        -2.308295         1.514789         3.946302
 C        -1.610493         0.654159         2.797482
 C        -0.113989         0.279821         2.479936
 H         1.030637        -0.073084        -0.118624
 H        -1.695016         1.393276        -0.420281
 H        -2.239530        -0.238031         0.449098
 H        -0.653914         3.152655         0.706624
 H        -0.341417         2.628995         2.467978
 H        -1.978643         2.176207         4.752976
 H        -3.100201         0.882786         4.329684
 H        -2.275793        -0.228283         2.564009
 H         0.595353         0.657448         3.202127
 H        -0.134969        -0.861878         2.358627
