19
Iteration:  4544charge 0 multiplicity 1
 O         0.919029         0.760088         0.220777
 C        -0.210583         0.990266         1.027685
 C        -1.722147         0.794508         0.515063
 C        -2.028185         1.606418         1.771050
 C        -0.730744         2.494580         1.484676
 O        -3.007174         2.293878         2.796905
 C        -2.212618         1.670417         3.874675
 C        -1.611975         0.621024         2.844607
 C        -0.219542         0.196947         2.389768
 H         1.063153         1.582390        -0.359912
 H        -1.893102         1.368050        -0.333531
 H        -1.904535        -0.244579         0.548252
 H        -0.909350         3.142522         0.628697
 H        -0.121779         3.109848         2.288821
 H        -1.527779         2.479511         4.111416
 H        -2.946906         1.110447         4.653235
 H        -2.192787        -0.280289         2.857800
 H         0.653756         0.453381         3.010196
 H        -0.043869        -0.857831         2.228693
