19
Iteration:  2839charge 0 multiplicity 1
 O         0.800548         0.655941         0.254224
 C        -0.244051         1.078899         1.023572
 C        -1.795938         0.866239         0.567085
 C        -1.911625         1.678829         1.815745
 C        -0.622048         2.517778         1.515894
 O        -3.001315         2.132845         2.663356
 C        -2.235964         1.652775         3.892357
 C        -1.559178         0.619672         2.823465
 C        -0.172591         0.308436         2.411595
 H         0.672560         1.085181        -0.654399
 H        -2.079179         1.334775        -0.374296
 H        -2.212959        -0.086288         0.502445
 H        -0.771446         3.357320         0.787154
 H        -0.044343         2.891014         2.388906
 H        -1.574398         2.453395         4.247631
 H        -2.935460         1.184554         4.616257
 H        -2.160227        -0.307427         2.703285
 H         0.551331         0.754314         3.084205
 H         0.202137        -0.746504         2.227122
