19
Iteration:  4074
 O         0.879237         0.707316         0.265174
 C        -0.199352         1.065733         1.084228
 C        -1.686711         0.881715         0.501317
 C        -2.027631         1.581832         1.833755
 C        -0.760215         2.381852         1.479476
 O        -3.007384         2.246558         2.695113
 C        -2.197781         1.688522         3.801929
 C        -1.574774         0.626965         2.916164
 C        -0.209502         0.242042         2.390537
 H         0.713865         1.242133        -0.590981
 H        -1.877751         1.644324        -0.368013
 H        -2.048853        -0.067715         0.179650
 H        -0.902485         3.137379         0.731711
 H        -0.284329         3.010612         2.362352
 H        -1.460441         2.477241         4.210659
 H        -2.654580         1.540816         4.715790
 H        -2.216291        -0.271039         2.950394
 H         0.638113         0.457345         3.033702
 H        -0.046710        -0.844957         2.129286
