19
Iteration:  4892charge 0 multiplicity 1
 O         0.803603         0.952558         0.132473
 C        -0.271916         1.021202         1.010414
 C        -1.781162         0.793989         0.492914
 C        -1.966134         1.602217         1.880040
 C        -0.612866         2.330741         1.537469
 O        -2.972879         2.171189         2.606189
 C        -2.307376         1.761405         3.871843
 C        -1.529505         0.637471         3.023908
 C        -0.156165         0.245809         2.412876
 H         1.231073         0.125059         0.213797
 H        -1.923459         1.432510        -0.380859
 H        -2.164252        -0.227516         0.475776
 H        -0.685320         3.014776         0.592009
 H         0.021873         2.780303         2.328974
 H        -1.633921         2.554567         4.333146
 H        -3.053566         1.414550         4.607993
 H        -2.215214        -0.258365         2.885245
 H         0.782137         0.515715         2.966484
 H        -0.213499        -0.818368         2.203842
