19
Iteration:  3669charge 0 multiplicity 1
 O         0.889222         0.753508         0.175397
 C        -0.219578         0.943122         1.039946
 C        -1.801583         0.873376         0.487997
 C        -1.960645         1.666790         1.806402
 C        -0.612604         2.409421         1.500117
 O        -2.988853         2.263749         2.671884
 C        -2.381822         1.636727         3.929694
 C        -1.552505         0.652001         2.900559
 C        -0.106866         0.256975         2.489121
 H         0.611190         1.167716        -0.708834
 H        -2.077374         1.348915        -0.477410
 H        -2.171982        -0.181028         0.412967
 H        -0.864520         3.179733         0.748857
 H         0.053505         2.943443         2.348098
 H        -1.783337         2.446542         4.366676
 H        -3.148151         1.177029         4.591030
 H        -2.202330        -0.245058         2.761156
 H         0.737868         0.717435         3.041198
 H         0.010366        -0.874231         2.319687
