19
Iteration:  1401
 O         0.809153         0.650494         0.118048
 C        -0.207388         1.040195         1.038366
 C        -1.740575         0.891972         0.490652
 C        -1.918096         1.666015         1.841587
 C        -0.688702         2.532271         1.472157
 O        -3.022120         2.278363         2.732989
 C        -2.291845         1.584115         3.826018
 C        -1.596619         0.666182         2.905180
 C        -0.158083         0.234946         2.450806
 H         1.673189         0.558039         0.643830
 H        -1.869234         1.482690        -0.427027
 H        -2.181417        -0.104113         0.473778
 H        -0.843758         3.393739         0.842675
 H        -0.121471         2.964749         2.415646
 H        -1.588720         2.196673         4.370534
 H        -2.903769         1.050091         4.500432
 H        -2.172657        -0.214015         2.682878
 H         0.704836         0.495278         3.052628
 H        -0.141411        -0.851951         2.326479
