19
Iteration:  4610
 O         0.811498         0.646191         0.134699
 C        -0.261314         1.047572         1.043437
 C        -1.697389         0.935079         0.478153
 C        -1.980818         1.567487         1.844447
 C        -0.667660         2.460373         1.625704
 O        -3.021926         2.159146         2.659788
 C        -2.288603         1.680716         3.855036
 C        -1.568576         0.648096         2.873831
 C        -0.109309         0.335036         2.423529
 H         0.734431         1.191435        -0.623443
 H        -1.772323         1.662026        -0.333784
 H        -1.917401        -0.152185         0.410354
 H        -0.793513         3.306533         0.916689
 H        -0.114701         2.816167         2.687644
 H        -1.563175         2.445098         4.218835
 H        -2.919025         1.245157         4.783729
 H        -2.162058        -0.254948         2.936127
 H         0.762878         0.731689         3.010936
 H        -0.069186        -0.758169         2.349933
