19
Iteration:   106
 O         0.831749         0.661212         0.235730
 C        -0.196829         1.021552         1.117580
 C        -1.728940         1.102991         0.483638
 C        -1.938819         1.771618         1.844431
 C        -0.360900         2.355409         1.661847
 O        -2.944955         2.361562         2.588529
 C        -2.341345         1.441693         3.827309
 C        -1.809295         0.548957         2.839013
 C        -0.332763         0.189630         2.392007
 H         1.322443         1.391393        -0.072750
 H        -1.636795         1.700875        -0.461111
 H        -2.179488         0.166344         0.114484
 H        -0.343836         3.374355         1.064126
 H         0.345215         2.382733         2.446532
 H        -1.514030         2.024472         4.315395
 H        -3.270716         1.287656         4.416957
 H        -2.647836        -0.082177         2.555784
 H         0.551280         0.253589         3.165218
 H        -0.372221        -0.828132         2.081402
