19
Iteration:  2282
 O         0.906162         0.724815         0.158565
 C        -0.220803         1.040169         0.962225
 C        -1.762884         0.814391         0.471890
 C        -1.978043         1.691392         1.812398
 C        -0.664621         2.551372         1.628560
 O        -3.091615         2.258388         2.738729
 C        -2.172587         1.604051         3.905942
 C        -1.552808         0.651345         2.836246
 C        -0.242945         0.142208         2.335571
 H         1.534956         1.506991         0.248081
 H        -2.045103         1.380631        -0.429498
 H        -2.251934        -0.256786         0.611574
 H        -0.829071         3.274284         0.874299
 H        -0.198630         2.888228         2.492458
 H        -1.419232         2.334687         4.394554
 H        -2.905597         1.072902         4.590681
 H        -2.288999        -0.191231         2.936071
 H         0.646503         0.463533         2.966830
 H        -0.202892        -0.925636         2.319715
