19
Iteration:   957charge 0 multiplicity 1
 O         0.876056         0.735897         0.185989
 C        -0.229760         0.989563         1.068769
 C        -1.736767         1.020702         0.530513
 C        -1.902303         1.730816         1.850783
 C        -0.524096         2.413685         1.562704
 O        -3.001507         2.245471         2.706355
 C        -2.348213         1.611308         3.825178
 C        -1.603361         0.651597         2.841470
 C        -0.233979         0.093411         2.408202
 H         0.647740         1.127299        -0.714071
 H        -1.884009         1.555355        -0.388964
 H        -2.302747         0.107509         0.477680
 H        -0.800651         2.974317         0.763561
 H         0.056466         2.899009         2.329454
 H        -1.619395         2.322359         4.380518
 H        -3.041799         1.176797         4.619487
 H        -2.280680        -0.204253         2.659838
 H         0.580119         0.352262         3.145709
 H        -0.460659        -0.926431         2.203984
