19
Iteration:   887
 O         0.858502         0.780635         0.230535
 C        -0.274072         0.945722         0.984974
 C        -1.827149         1.013928         0.486928
 C        -1.904135         1.682693         1.852935
 C        -0.496299         2.312285         1.556359
 O        -2.927194         2.313972         2.637266
 C        -2.322095         1.590888         3.903934
 C        -1.656427         0.614610         2.866835
 C        -0.226265         0.154438         2.441372
 H         1.083520         1.666830        -0.211565
 H        -1.960090         1.545704        -0.479632
 H        -2.303099         0.011064         0.368931
 H        -0.659848         3.084421         0.772331
 H         0.249116         2.665691         2.382049
 H        -1.835523         2.402721         4.421576
 H        -3.084051         1.174722         4.546916
 H        -2.406692        -0.204781         2.728655
 H         0.653084         0.565953         2.946670
 H        -0.218175        -0.983850         2.322695
