19
Iteration:   644
 O         0.862056         0.785561         0.104689
 C        -0.280917         0.947767         1.080218
 C        -1.799057         0.991595         0.566004
 C        -1.830860         1.735877         1.895654
 C        -0.559493         2.413220         1.529049
 O        -2.927958         2.296248         2.567841
 C        -2.308082         1.578665         3.824986
 C        -1.681659         0.596803         2.876968
 C        -0.317353         0.114307         2.509023
 H         1.557600         1.328449         0.441144
 H        -1.673559         1.503223        -0.438226
 H        -2.354271        -0.007918         0.551096
 H        -0.529875         3.127946         0.664580
 H         0.123123         2.706508         2.423568
 H        -1.609085         2.359781         4.268057
 H        -3.139410         1.211902         4.502068
 H        -2.349814        -0.273078         2.621623
 H         0.463510         0.409791         3.257229
 H        -0.168474        -0.993694         2.360152
