19
Iteration:  3119
 O         0.772026         0.837218         0.211955
 C        -0.206735         0.991135         1.072344
 C        -1.744267         0.863509         0.557570
 C        -1.920666         1.597836         1.833459
 C        -0.665226         2.371293         1.506588
 O        -2.948260         2.276069         2.651779
 C        -2.276388         1.626562         3.825239
 C        -1.596255         0.594775         2.875241
 C        -0.178713         0.258801         2.429270
 H         0.530273         1.212608        -0.659897
 H        -1.747578         1.490995        -0.314557
 H        -2.153045        -0.191231         0.430478
 H        -0.731130         3.179838         0.702868
 H        -0.060388         2.829194         2.385672
 H        -1.668860         2.496423         4.221805
 H        -2.868140         1.178520         4.625269
 H        -2.275401        -0.344561         2.722311
 H         0.701460         0.733026         3.191218
 H         0.089726        -0.825916         2.482063
