19
Iteration:  1864charge 0 multiplicity 1
 O         0.772264         0.872389         0.131565
 C        -0.253447         1.026279         1.045851
 C        -1.710679         0.963800         0.577894
 C        -1.910974         1.636388         1.913813
 C        -0.537046         2.410248         1.518772
 O        -3.064936         2.153955         2.637715
 C        -2.304141         1.680869         3.869950
 C        -1.620397         0.510751         2.901849
 C        -0.114914         0.256256         2.398133
 H         0.763762         0.002074        -0.221760
 H        -1.829182         1.529152        -0.333131
 H        -2.066505        -0.070090         0.364086
 H        -0.580719         3.173719         0.748294
 H         0.010334         2.826488         2.382487
 H        -1.625192         2.499522         4.228788
 H        -2.978230         1.406525         4.652569
 H        -2.381279        -0.224041         2.753729
 H         0.682500         0.632533         3.134004
 H         0.041332        -0.789939         2.069487
