19
Iteration:   586charge 0 multiplicity 1
 O         0.866530         0.592508         0.137070
 C        -0.239087         0.984713         1.114868
 C        -1.820002         1.083522         0.537831
 C        -1.922333         1.692171         1.834469
 C        -0.561902         2.435956         1.655923
 O        -2.976710         2.288899         2.633521
 C        -2.307503         1.622790         3.760097
 C        -1.644362         0.550805         2.803978
 C        -0.224669         0.203488         2.467057
 H         1.604877         1.234220         0.230997
 H        -1.855346         1.888262        -0.245582
 H        -2.295821         0.108539         0.234279
 H        -0.512812         3.029097         0.660500
 H        -0.067222         2.882424         2.397501
 H        -1.578186         2.302803         4.256921
 H        -3.023700         1.289043         4.520244
 H        -2.325924        -0.335155         2.686987
 H         0.512781         0.695139         3.211465
 H        -0.121968        -0.866571         2.424546
