19
Iteration:   491charge 0 multiplicity 1
 O         0.842008         0.692084         0.167143
 C        -0.262005         0.840156         1.059127
 C        -1.723829         1.043019         0.472826
 C        -1.901436         1.774385         1.832785
 C        -0.501301         2.363917         1.695125
 O        -3.063307         2.197829         2.578061
 C        -2.244814         1.630480         3.869737
 C        -1.656283         0.697943         2.820020
 C        -0.280239         0.178468         2.469448
 H         1.195816         1.643922         0.016760
 H        -1.765302         1.599113        -0.500664
 H        -2.417750         0.169439         0.251896
 H        -0.482406         3.240751         0.952097
 H         0.307378         2.703964         2.516594
 H        -1.584736         2.418604         4.322774
 H        -2.780077         1.254610         4.780952
 H        -2.410852        -0.024270         2.453533
 H         0.553490         0.513057         3.102842
 H        -0.301887        -0.889229         2.349685
