19
Iteration:  4191charge 0 multiplicity 1
 O         0.892088         0.758074         0.336752
 C        -0.288515         0.985456         1.059091
 C        -1.854311         0.859820         0.516352
 C        -1.981588         1.669786         1.794071
 C        -0.619336         2.392253         1.459338
 O        -2.975932         2.182281         2.678394
 C        -2.162487         1.646880         3.759435
 C        -1.549780         0.612236         2.879337
 C        -0.209244         0.314394         2.419975
 H         0.729645         1.350065        -0.470809
 H        -1.975868         1.629126        -0.348958
 H        -2.489355        -0.010847         0.538924
 H        -0.824854         3.112975         0.687931
 H        -0.110834         2.832730         2.305424
 H        -1.561236         2.378110         4.306251
 H        -2.873839         1.458107         4.685649
 H        -2.271894        -0.258393         2.876654
 H         0.621855         0.710735         3.020243
 H         0.024423        -0.806835         2.310064
