19
Iteration:  2906
 O         0.874194         0.902139         0.266425
 C        -0.318308         0.986709         1.023695
 C        -1.842337         0.796411         0.643762
 C        -1.894633         1.590385         1.849135
 C        -0.585353         2.400261         1.506310
 O        -3.016617         2.274292         2.610948
 C        -2.223531         1.703247         3.820751
 C        -1.592085         0.575872         2.904941
 C        -0.159671         0.164832         2.359271
 H         0.941344         1.546812        -0.408657
 H        -2.247557         1.289979        -0.235934
 H        -2.103215        -0.181369         0.712712
 H        -0.713816         3.118319         0.640637
 H         0.146057         2.920237         2.159651
 H        -1.514513         2.454726         3.998521
 H        -2.976609         1.338177         4.576059
 H        -2.412543        -0.211788         2.900042
 H         0.589729         0.480690         3.057941
 H        -0.098964        -0.972101         2.072616
