19
Iteration:  4988charge 0 multiplicity 1
 O         0.790721         0.784949         0.085274
 C        -0.237131         1.088584         1.003282
 C        -1.710799         0.784884         0.500314
 C        -1.922357         1.597726         1.877019
 C        -0.700931         2.442738         1.567290
 O        -3.020305         2.181461         2.663052
 C        -2.327831         1.718261         3.872081
 C        -1.511197         0.652112         2.997153
 C        -0.105087         0.281957         2.352131
 H         0.951807        -0.102799         0.330780
 H        -1.872211         1.559498        -0.333246
 H        -2.000269        -0.280168         0.401875
 H        -0.731792         3.422635         0.864329
 H        -0.011762         2.814983         2.434902
 H        -1.987354         2.603415         4.413156
 H        -3.118376         1.256326         4.397691
 H        -2.125176        -0.229839         3.086646
 H         0.668033         0.703144         3.029610
 H         0.021965        -0.783051         2.164559
