19
Iteration:  2100charge 0 multiplicity 1
 O         0.846175         0.951309         0.082821
 C        -0.205544         1.006221         1.016239
 C        -1.774172         0.875245         0.542932
 C        -1.940985         1.703718         1.861500
 C        -0.582273         2.400650         1.633784
 O        -3.080485         2.139916         2.702511
 C        -2.279119         1.705063         3.836332
 C        -1.555954         0.649454         2.901839
 C        -0.190433         0.132537         2.364113
 H         1.026173         0.008189        -0.084773
 H        -1.819583         1.366555        -0.385814
 H        -2.258401        -0.061425         0.586649
 H        -0.560923         3.163329         0.846793
 H         0.146647         2.582578         2.503156
 H        -1.655477         2.469525         4.324929
 H        -3.004537         1.235807         4.548757
 H        -2.274901        -0.192961         2.787841
 H         0.588104         0.519953         2.941179
 H        -0.160545        -0.996021         2.283491
