19
Iteration:  2657charge 0 multiplicity 1
 O         0.855726         0.704594         0.040096
 C        -0.221839         0.969067         0.987466
 C        -1.801252         0.904106         0.596285
 C        -1.905089         1.633247         1.909010
 C        -0.684120         2.414702         1.367648
 O        -2.950011         2.215261         2.695764
 C        -2.380508         1.624918         3.907336
 C        -1.592141         0.576059         2.939024
 C        -0.100796         0.375511         2.511613
 H         1.665380         1.146440         0.292536
 H        -1.994236         1.597684        -0.343305
 H        -2.351406        -0.027268         0.254812
 H        -1.073519         3.173440         0.650479
 H        -0.162359         2.988891         2.098594
 H        -1.709666         2.334707         4.370586
 H        -3.159122         1.520950         4.674894
 H        -2.315579        -0.277083         2.709514
 H         0.680025         0.751605         3.125728
 H         0.098358        -0.688179         2.569111
