19
Iteration:   806
 O         0.911468         0.704745         0.176088
 C        -0.211980         0.922928         1.022096
 C        -1.866068         1.020845         0.425101
 C        -1.907390         1.771910         1.783417
 C        -0.547755         2.343510         1.600929
 O        -3.055428         2.240442         2.721373
 C        -2.244395         1.598324         3.865989
 C        -1.600755         0.674441         2.865541
 C        -0.284818         0.164098         2.412472
 H         1.635308         1.244332         0.514781
 H        -1.915778         1.836406        -0.331409
 H        -2.468477         0.106511         0.227718
 H        -0.463678         3.183049         0.671267
 H        -0.045285         2.692943         2.462522
 H        -1.658824         2.349958         4.297871
 H        -2.962775         1.229748         4.587648
 H        -2.421505        -0.078961         2.868388
 H         0.528489         0.465680         3.108511
 H        -0.030234        -0.892076         2.324175
