19
Iteration:  3542
 O         0.871429         0.763959         0.185475
 C        -0.260398         0.992488         1.024236
 C        -1.728826         0.815156         0.434573
 C        -2.022594         1.596634         1.816603
 C        -0.609543         2.429881         1.574956
 O        -2.990694         2.244012         2.748274
 C        -2.277924         1.717664         3.826625
 C        -1.589957         0.624584         2.885023
 C        -0.190469         0.230562         2.434885
 H         0.828982         1.475059        -0.470183
 H        -1.761898         1.590843        -0.401423
 H        -1.962670        -0.219398         0.351097
 H        -0.744940         3.141351         0.734236
 H        -0.240207         3.045363         2.379478
 H        -1.623820         2.414910         4.327032
 H        -2.982477         1.375191         4.644882
 H        -2.293145        -0.227200         2.979852
 H         0.817689         0.578744         2.867397
 H        -0.035051        -0.972296         2.488601
