19
Iteration:  1865charge 0 multiplicity 1
 O         0.777858         0.876085         0.122571
 C        -0.248774         1.022070         1.038679
 C        -1.708091         0.952368         0.565787
 C        -1.903700         1.647177         1.911331
 C        -0.538173         2.410569         1.523107
 O        -3.069766         2.162174         2.651402
 C        -2.307247         1.670381         3.863334
 C        -1.625436         0.512956         2.904637
 C        -0.120108         0.257296         2.405053
 H         0.756955        -0.021369        -0.214685
 H        -1.842992         1.510659        -0.341045
 H        -2.044270        -0.054402         0.392095
 H        -0.577588         3.162680         0.705104
 H         0.029783         2.820993         2.412003
 H        -1.647975         2.533816         4.226522
 H        -2.972969         1.354601         4.688671
 H        -2.361660        -0.243606         2.745435
 H         0.693982         0.650354         3.127804
 H        -0.009389        -0.776587         2.132964
