19
Iteration:  1528
 O         0.866389         0.882451         0.274886
 C        -0.282883         0.977011         0.999965
 C        -1.789613         0.883704         0.485457
 C        -1.978147         1.609685         1.807194
 C        -0.699601         2.377629         1.463888
 O        -2.872662         2.321279         2.707634
 C        -2.229324         1.612749         3.811595
 C        -1.630979         0.571640         2.941082
 C        -0.210782         0.271660         2.425205
 H         0.966650         0.057209        -0.159311
 H        -1.849500         1.413269        -0.474279
 H        -2.126096        -0.158145         0.376035
 H        -0.925856         3.095927         0.733047
 H        -0.243411         2.698111         2.343338
 H        -1.553772         2.328218         4.267045
 H        -2.915395         1.281787         4.617081
 H        -2.211911        -0.323131         2.865034
 H         0.719667         0.697376         2.955238
 H         0.036080        -0.769358         2.348498
