19
Iteration:  1546
 O         0.871445         0.880246         0.153414
 C        -0.195154         1.037365         1.067410
 C        -1.701293         0.746015         0.461675
 C        -1.979460         1.608402         1.857731
 C        -0.727689         2.428349         1.514447
 O        -2.889139         2.325772         2.710381
 C        -2.266935         1.639341         3.960212
 C        -1.640032         0.598319         2.871560
 C        -0.232039         0.219444         2.409297
 H         0.676219         0.084074        -0.297630
 H        -1.786463         1.441805        -0.388331
 H        -2.149589        -0.263025         0.390962
 H        -0.776271         3.045344         0.451530
 H         0.079254         3.131922         2.006311
 H        -1.672531         2.318936         4.589136
 H        -3.202358         1.289410         4.403591
 H        -2.419638        -0.212359         2.633935
 H         0.465521         0.663082         3.096602
 H        -0.074504        -0.894387         2.392298
