19
Iteration:  4677
 O         0.847652         0.802970         0.234575
 C        -0.221906         1.010531         1.032009
 C        -1.748399         0.799319         0.475334
 C        -2.054244         1.556486         1.827863
 C        -0.683653         2.349692         1.525876
 O        -2.905180         2.379311         2.717485
 C        -2.343369         1.650024         3.869964
 C        -1.642937         0.569034         2.911767
 C        -0.040665         0.309244         2.356676
 H         0.708551         1.336034        -0.600634
 H        -1.841188         1.231863        -0.537516
 H        -2.078807        -0.324271         0.420778
 H        -0.944229         3.090951         0.752186
 H        -0.020773         2.782555         2.539311
 H        -1.657301         2.254782         4.535030
 H        -3.186260         1.362895         4.601617
 H        -2.192995        -0.355467         2.817162
 H         0.781079         0.794327         2.851516
 H         0.115327        -0.799971         2.200026
