19
Iteration:  1972
 O         0.781432         0.949672         0.131778
 C        -0.268608         1.007166         1.109119
 C        -1.639249         0.884482         0.494370
 C        -1.956673         1.639118         1.821505
 C        -0.607616         2.414359         1.641956
 O        -3.048301         2.123099         2.655101
 C        -2.196712         1.687482         3.844938
 C        -1.605354         0.645115         2.923410
 C        -0.225879         0.162530         2.351421
 H         0.791823         0.005429        -0.137011
 H        -1.818789         1.495097        -0.422245
 H        -2.191768        -0.127523         0.364670
 H        -0.580725         3.100241         0.842304
 H        -0.064559         2.811967         2.482699
 H        -1.483711         2.505667         4.063750
 H        -2.746173         1.528740         4.760551
 H        -2.289358        -0.177457         2.746729
 H         0.562610         0.541086         3.043276
 H         0.025748        -0.905893         2.225673
