19
Iteration:  1405
 O         0.812144         0.678103         0.123120
 C        -0.223122         1.006864         1.046769
 C        -1.736187         0.899426         0.509298
 C        -1.919905         1.687685         1.830031
 C        -0.670306         2.509468         1.450530
 O        -3.000876         2.272718         2.756944
 C        -2.306212         1.586467         3.800352
 C        -1.638639         0.633119         2.914083
 C        -0.140971         0.271851         2.458844
 H         1.619280         0.528565         0.576476
 H        -1.764703         1.526411        -0.401984
 H        -2.247549        -0.082770         0.476758
 H        -0.803978         3.428452         0.779255
 H        -0.159955         3.016157         2.239849
 H        -1.589510         2.271166         4.264148
 H        -2.827789         0.922369         4.533709
 H        -2.214366        -0.305495         2.648695
 H         0.765977         0.432706         3.078393
 H        -0.200958        -0.867008         2.402869
