19
Iteration:  2970
 O         0.851360         0.670139         0.239821
 C        -0.228677         1.021958         1.027620
 C        -1.853744         0.938165         0.578695
 C        -1.944581         1.633952         1.891752
 C        -0.639167         2.511568         1.558812
 O        -2.991627         2.159963         2.644311
 C        -2.266110         1.649361         3.749490
 C        -1.585688         0.555967         2.859069
 C        -0.096521         0.324575         2.442493
 H         0.767553         1.121965        -0.657486
 H        -2.076234         1.648080        -0.361224
 H        -2.302972        -0.145226         0.620842
 H        -0.583842         3.143402         0.627448
 H        -0.136765         3.104017         2.351094
 H        -1.584212         2.425218         4.150362
 H        -2.770148         1.249405         4.636477
 H        -2.316427        -0.271805         2.592744
 H         0.549843         0.826428         3.096720
 H         0.011849        -0.799315         2.308565
