19
Iteration:  3197
 O         0.872358         0.693849         0.210426
 C        -0.219874         1.006784         1.052460
 C        -1.772096         0.913338         0.513207
 C        -1.992183         1.650751         1.839347
 C        -0.698108         2.438805         1.547935
 O        -3.050198         2.199892         2.686692
 C        -2.190161         1.658372         3.831522
 C        -1.574349         0.622121         2.822857
 C        -0.148507         0.273377         2.443793
 H         0.977992         1.297795        -0.513903
 H        -1.844734         1.593353        -0.319791
 H        -2.346080        -0.075724         0.377861
 H        -0.941929         3.183777         0.707383
 H        -0.091848         2.820649         2.417425
 H        -1.453305         2.383853         4.252042
 H        -2.872598         1.289764         4.557385
 H        -2.374939        -0.179299         2.753854
 H         0.725789         0.652297         3.169575
 H         0.147801        -0.816490         2.434502
