19
Iteration:  3085
 O         0.933374         0.729077         0.230023
 C        -0.203649         1.061695         1.024424
 C        -1.793484         0.874335         0.498157
 C        -1.969854         1.562885         1.821033
 C        -0.695232         2.436337         1.537560
 O        -3.044549         2.156275         2.744685
 C        -2.196025         1.746521         3.838261
 C        -1.569844         0.682804         2.898708
 C        -0.207422         0.202241         2.316179
 H         1.046468         1.462880        -0.467812
 H        -1.977363         1.431031        -0.443854
 H        -2.175998        -0.155331         0.422732
 H        -0.851521         3.287856         0.821170
 H        -0.206670         2.728008         2.549956
 H        -1.647316         2.638785         4.197823
 H        -2.813132         1.387168         4.652299
 H        -2.255419        -0.210027         2.805898
 H         0.552760         0.533193         3.172248
 H        -0.324451        -0.859417         2.286056
