19
Iteration:  1217
 O         0.727256         0.782067         0.046146
 C        -0.219822         0.968918         1.032328
 C        -1.677121         0.908423         0.583732
 C        -1.967479         1.556063         1.893150
 C        -0.616584         2.337016         1.520071
 O        -2.942439         2.291359         2.647289
 C        -2.431694         1.728138         3.826156
 C        -1.577388         0.613307         3.030179
 C        -0.102840         0.253565         2.357499
 H         1.515425         1.105724         0.553388
 H        -1.905068         1.575725        -0.244039
 H        -2.020829        -0.112860         0.371305
 H        -0.813599         3.010706         0.774120
 H         0.061311         2.872005         2.228846
 H        -1.721515         2.494205         4.432731
 H        -3.185621         1.264759         4.504046
 H        -2.203993        -0.264119         3.077775
 H         0.822913         0.545537         2.903100
 H        -0.058120        -0.833139         2.180391
