19
Iteration:  1758charge 0 multiplicity 1
 O         0.892099         0.864159         0.178017
 C        -0.290842         0.999934         0.954378
 C        -1.791732         0.926614         0.483639
 C        -2.031243         1.665366         1.846076
 C        -0.625161         2.394157         1.489576
 O        -2.971830         2.265217         2.734084
 C        -2.336882         1.586692         3.858136
 C        -1.561199         0.556976         2.891905
 C        -0.091522         0.271557         2.447845
 H         0.987035        -0.064736         0.052949
 H        -2.036054         1.525252        -0.372882
 H        -2.228813        -0.022543         0.499004
 H        -0.729934         3.217417         0.814836
 H         0.079634         2.473706         2.319251
 H        -1.634788         2.259625         4.405578
 H        -3.189456         1.294376         4.536010
 H        -2.191489        -0.308718         2.923945
 H         0.801340         0.737929         2.921626
 H         0.099797        -0.769266         2.446301
