19
Iteration:  2470
 O         0.852215         0.851793         0.178171
 C        -0.234778         1.036259         1.071690
 C        -1.759905         0.887601         0.624452
 C        -1.899585         1.658842         1.882799
 C        -0.574322         2.433896         1.563024
 O        -3.005585         2.238574         2.632985
 C        -2.323897         1.668571         3.834809
 C        -1.544730         0.609628         2.914426
 C        -0.218268         0.126503         2.329049
 H         0.491858         0.538629        -0.679101
 H        -1.964428         1.527884        -0.327415
 H        -2.071936        -0.194406         0.628744
 H        -0.685834         3.096896         0.732387
 H        -0.011069         2.933645         2.301044
 H        -1.700260         2.407123         4.407903
 H        -3.154895         1.296559         4.528890
 H        -2.298916        -0.229772         2.745878
 H         0.673141         0.267232         2.855326
 H        -0.214101        -0.919904         1.991840
