19
Iteration:  3441charge 0 multiplicity 1
 O         0.874932         0.792267         0.245333
 C        -0.220296         1.006602         1.062246
 C        -1.836827         0.881582         0.600224
 C        -1.993425         1.584943         1.836726
 C        -0.631116         2.475132         1.497620
 O        -2.968591         2.253434         2.627298
 C        -2.209876         1.624849         3.826193
 C        -1.594837         0.622533         2.875451
 C        -0.177273         0.210985         2.419363
 H         0.741100         1.229356        -0.629596
 H        -1.935600         1.465143        -0.368261
 H        -2.254891        -0.050655         0.356045
 H        -0.796414         3.068027         0.645513
 H         0.061744         2.949181         2.215156
 H        -1.586211         2.285658         4.312234
 H        -2.966830         1.213534         4.545502
 H        -2.223568        -0.238759         2.941356
 H         0.549171         0.587546         3.159527
 H        -0.183881        -0.901303         2.252722
