19
Iteration:   203charge 0 multiplicity 1
 O         0.951831         0.829513         0.393350
 C        -0.271010         0.986581         1.063491
 C        -1.765489         1.081744         0.352791
 C        -1.962798         1.649054         1.809267
 C        -0.516921         2.270473         1.642365
 O        -2.872281         2.364895         2.718165
 C        -2.333201         1.723921         3.849082
 C        -1.706123         0.538227         2.771684
 C        -0.302668         0.049374         2.339410
 H         0.682448         0.626518        -0.500760
 H        -1.701049         1.723873        -0.603024
 H        -2.269484         0.113742         0.034245
 H        -0.665043         3.032749         0.756503
 H         0.043933         2.618930         2.441639
 H        -1.664247         2.208854         4.594309
 H        -3.148095         1.101378         4.250594
 H        -2.519808        -0.191393         2.890141
 H         0.559947         0.308704         3.012178
 H        -0.344972        -1.018059         2.214973
