19
Iteration:  1577
 O         0.784931         0.881264         0.129235
 C        -0.210227         0.954178         1.065522
 C        -1.809847         0.838435         0.615095
 C        -1.910191         1.680779         1.840564
 C        -0.549919         2.413235         1.581344
 O        -3.037911         2.207554         2.643864
 C        -2.275620         1.630121         3.814961
 C        -1.555646         0.686128         2.864977
 C        -0.159870         0.262732         2.415388
 H         0.814775        -0.047991        -0.251549
 H        -1.950691         1.460604        -0.303793
 H        -2.401959        -0.096696         0.520965
 H        -0.541273         3.019914         0.634276
 H         0.150536         2.643130         2.445892
 H        -1.748183         2.452474         4.449083
 H        -3.045201         1.192426         4.485955
 H        -2.258820        -0.172674         2.617778
 H         0.647411         0.626709         3.001825
 H        -0.024815        -0.857396         2.456035
