19
Iteration:  1034
 O         0.846157         0.728068         0.232077
 C        -0.229893         1.011078         1.077999
 C        -1.792375         0.965854         0.512670
 C        -1.922122         1.804236         1.835819
 C        -0.645296         2.481104         1.457466
 O        -2.969368         2.182563         2.752969
 C        -2.208571         1.623459         3.815492
 C        -1.647780         0.609043         2.842652
 C        -0.292768         0.106940         2.385312
 H         1.682909         1.142915         0.377066
 H        -1.904814         1.577340        -0.375552
 H        -2.127828        -0.061756         0.422043
 H        -0.594276         3.086508         0.558310
 H         0.143320         2.930715         2.228974
 H        -1.498122         2.402884         4.180887
 H        -2.859567         1.138573         4.614590
 H        -2.452706        -0.142738         2.640542
 H         0.580830         0.357760         3.084862
 H        -0.200463        -1.005126         2.183054
