19
Iteration:  2053charge 0 multiplicity 1
 O         0.865184         0.783590         0.103996
 C        -0.175657         0.998272         1.064107
 C        -1.800275         0.997547         0.566855
 C        -1.951703         1.703237         1.841468
 C        -0.708376         2.533186         1.547968
 O        -2.949104         2.202540         2.696032
 C        -2.259559         1.564055         3.875962
 C        -1.670047         0.520861         2.792541
 C        -0.122407         0.246487         2.439237
 H         1.198548        -0.173706         0.149316
 H        -1.907618         1.575498        -0.358642
 H        -2.153920        -0.028423         0.638033
 H        -1.034965         3.013648         0.580668
 H        -0.346441         3.205587         2.361688
 H        -1.614664         2.323587         4.182158
 H        -2.889834         1.191793         4.711382
 H        -2.328115        -0.378646         2.725497
 H         0.597344         0.782569         3.181189
 H         0.020179        -0.829635         2.288471
