19
Iteration:  4027
 O         0.862921         0.799750         0.209199
 C        -0.251804         0.951138         1.037324
 C        -1.799173         0.863118         0.530035
 C        -1.964479         1.657310         1.841199
 C        -0.614961         2.366392         1.472897
 O        -3.040559         2.252212         2.664991
 C        -2.274426         1.631396         3.841861
 C        -1.620412         0.656666         2.914683
 C        -0.067282         0.262818         2.476057
 H         0.972381         1.455629        -0.439156
 H        -1.882009         1.393200        -0.467828
 H        -2.365803        -0.145962         0.450009
 H        -0.631838         3.017862         0.523135
 H         0.052881         3.015326         2.239800
 H        -1.667285         2.301523         4.338773
 H        -2.971972         1.355573         4.638560
 H        -2.253495        -0.246578         2.707758
 H         0.860716         0.396685         3.002474
 H        -0.223298        -0.822923         2.456825
