19
Iteration:  4700
 O         0.870782         0.841801         0.143678
 C        -0.227348         0.956734         1.046704
 C        -1.736567         0.746165         0.511223
 C        -1.995666         1.614422         1.842724
 C        -0.730245         2.460222         1.515114
 O        -2.923133         2.314253         2.695364
 C        -2.199178         1.606048         3.837539
 C        -1.615974         0.615667         2.863540
 C        -0.243038         0.250590         2.506305
 H         0.971971         1.731274        -0.307812
 H        -1.793892         1.156846        -0.471356
 H        -2.102896        -0.350958         0.482245
 H        -0.877919         3.079324         0.595979
 H        -0.008291         2.946421         2.387800
 H        -1.622439         2.373421         4.375105
 H        -2.863642         1.172112         4.606103
 H        -2.312690        -0.202021         2.750753
 H         0.474530         0.659391         3.151954
 H        -0.110474        -0.841572         2.329140
