19
Iteration:   179charge 0 multiplicity 1
 O         0.992428         0.856647         0.254475
 C        -0.293253         0.933021         1.064086
 C        -1.744029         1.007277         0.541728
 C        -1.896963         1.798640         1.823364
 C        -0.542207         2.391474         1.721889
 O        -2.908079         2.378180         2.621087
 C        -2.289723         1.561034         3.842577
 C        -1.773972         0.521752         2.702893
 C        -0.333908         0.055490         2.367587
 H         0.930665        -0.030637        -0.075009
 H        -1.755232         1.632988        -0.411386
 H        -2.415582         0.145427         0.450193
 H        -0.576335         3.087451         0.876083
 H         0.043509         2.763178         2.577767
 H        -1.475786         2.165835         4.209016
 H        -3.101969         1.333401         4.561725
 H        -2.639727        -0.148877         2.480406
 H         0.395267         0.371172         3.046699
 H        -0.318536        -1.070585         2.308065
