19
Iteration:  3196
 O         0.867366         0.691276         0.213787
 C        -0.226007         1.010866         1.049805
 C        -1.767907         0.911629         0.513199
 C        -1.989943         1.652359         1.833793
 C        -0.696940         2.444482         1.540831
 O        -3.046619         2.200933         2.681464
 C        -2.192187         1.647905         3.831345
 C        -1.573001         0.627041         2.829953
 C        -0.139805         0.267297         2.448361
 H         0.975657         1.288592        -0.500522
 H        -1.855047         1.635092        -0.302335
 H        -2.384552        -0.080723         0.387861
 H        -0.952576         3.204235         0.713168
 H        -0.120175         2.830738         2.449294
 H        -1.473157         2.388104         4.235346
 H        -2.851689         1.292713         4.573059
 H        -2.370073        -0.190672         2.762335
 H         0.707368         0.621801         3.174428
 H         0.159776        -0.792140         2.419016
