19
Iteration:  2717
 O         0.825468         0.785445         0.015420
 C        -0.204844         1.011297         0.996267
 C        -1.766112         0.882177         0.578953
 C        -1.958816         1.553871         1.944140
 C        -0.608292         2.420391         1.498673
 O        -3.065153         2.162255         2.621044
 C        -2.246579         1.799249         3.876297
 C        -1.564858         0.590410         3.026470
 C        -0.175479         0.243791         2.382546
 H         1.664563         0.872377         0.572325
 H        -2.058483         1.568831        -0.162536
 H        -2.075999        -0.189267         0.436172
 H        -1.003089         3.053959         0.710829
 H        -0.139631         3.028152         2.307886
 H        -1.671255         2.774136         4.150296
 H        -3.044124         1.475366         4.562661
 H        -2.150217        -0.306170         3.044082
 H         0.711633         0.642468         2.976956
 H        -0.163229        -0.883278         2.369563
