19
Iteration:  1743
 O         0.842723         0.822196         0.107489
 C        -0.210064         1.006564         1.013035
 C        -1.816379         0.934812         0.516609
 C        -1.880571         1.642906         1.884786
 C        -0.551577         2.427143         1.560630
 O        -3.047164         2.161122         2.642013
 C        -2.292857         1.575420         3.911544
 C        -1.599036         0.660128         2.930579
 C        -0.216556         0.296751         2.414727
 H         1.014824        -0.150813        -0.055261
 H        -1.792493         1.695945        -0.261218
 H        -2.281834        -0.070862         0.249289
 H        -0.769286         3.104180         0.649807
 H         0.005235         3.037574         2.317425
 H        -1.669097         2.465613         4.360169
 H        -2.863520         1.057960         4.701630
 H        -2.297854        -0.194450         2.700608
 H         0.570978         0.796146         3.002149
 H         0.094964        -0.777001         2.360591
