19
Iteration:  1868
 O         0.797641         0.886298         0.093158
 C        -0.229911         1.011313         1.020083
 C        -1.700374         0.917296         0.529441
 C        -1.888870         1.680058         1.896624
 C        -0.542295         2.418291         1.545055
 O        -3.078933         2.185985         2.694112
 C        -2.316679         1.637390         3.845329
 C        -1.633318         0.537311         2.915317
 C        -0.140065         0.263019         2.430381
 H         0.743814        -0.088863        -0.196113
 H        -1.883912         1.487615        -0.391992
 H        -2.033955        -0.082850         0.479497
 H        -0.590152         3.101481         0.617197
 H         0.071540         2.787087         2.438966
 H        -1.738057         2.559207         4.198812
 H        -2.941529         1.208759         4.755673
 H        -2.314191        -0.336221         2.724869
 H         0.674915         0.670144         3.045451
 H        -0.133327        -0.812313         2.345328
