19
Iteration:  4901charge 0 multiplicity 1
 O         0.848125         0.927687         0.124328
 C        -0.204619         1.030915         1.050648
 C        -1.798144         0.787027         0.495660
 C        -1.962722         1.527187         1.829739
 C        -0.707296         2.391289         1.516129
 O        -2.949735         2.246454         2.681447
 C        -2.363098         1.765434         3.903755
 C        -1.577189         0.609211         3.024607
 C        -0.088156         0.204565         2.359426
 H         1.178603         0.054332         0.106818
 H        -1.910565         1.367401        -0.493894
 H        -2.119702        -0.223760         0.274243
 H        -0.788229         3.186201         0.489451
 H         0.017457         2.981935         2.278138
 H        -1.741870         2.581471         4.266037
 H        -3.153951         1.536179         4.517344
 H        -2.250672        -0.291237         3.143148
 H         0.853236         0.320985         2.949900
 H        -0.105699        -0.860204         2.219771
