19
Iteration:  2550
 O         0.835846         0.814469         0.128452
 C        -0.248835         0.988040         1.048678
 C        -1.795366         0.806991         0.637214
 C        -1.994550         1.697523         1.836848
 C        -0.636254         2.433904         1.599132
 O        -3.023785         2.283380         2.688278
 C        -2.299707         1.639737         3.802540
 C        -1.530698         0.657514         2.851247
 C        -0.100529         0.185271         2.301798
 H         1.483223         0.511793         0.790265
 H        -2.211307         1.243915        -0.331447
 H        -2.255878        -0.199634         0.835322
 H        -0.720827         3.205210         0.769246
 H         0.073226         2.780866         2.385829
 H        -1.604208         2.507327         4.184163
 H        -2.962623         1.233453         4.562440
 H        -2.285769        -0.113585         2.767917
 H         0.876192         0.451818         2.848195
 H        -0.178534        -0.869229         1.986596
