19
Iteration:  1558
 O         0.871566         0.882300         0.102719
 C        -0.218722         0.997241         1.040908
 C        -1.694260         0.819223         0.522400
 C        -1.959931         1.720052         1.839561
 C        -0.638713         2.436568         1.454571
 O        -2.970183         2.333280         2.747679
 C        -2.348882         1.593043         3.847207
 C        -1.637154         0.597505         2.932418
 C        -0.172128         0.183890         2.486901
 H         0.738665         0.040031        -0.428822
 H        -1.792634         1.057789        -0.530982
 H        -2.011437        -0.229969         0.614045
 H        -0.915480         3.132702         0.527402
 H        -0.145503         2.892671         2.358546
 H        -1.629329         2.235592         4.303838
 H        -3.002873         1.232277         4.646056
 H        -2.294181        -0.301694         2.848296
 H         0.708292         0.459540         3.078248
 H        -0.099029        -0.903457         2.293271
