19
Iteration:  3472charge 0 multiplicity 1
 O         0.835057         0.743640         0.187727
 C        -0.233182         0.951785         1.019910
 C        -1.712299         0.835605         0.483941
 C        -2.017920         1.606778         1.823386
 C        -0.621613         2.501940         1.592226
 O        -2.988377         2.271491         2.705826
 C        -2.291458         1.635805         3.864504
 C        -1.593251         0.645821         2.862328
 C        -0.168040         0.263041         2.395009
 H         0.720436         0.959260        -0.767455
 H        -1.777779         1.527993        -0.352246
 H        -1.966008        -0.233562         0.451998
 H        -0.654757         3.224794         0.783892
 H         0.043169         2.914707         2.396450
 H        -1.615773         2.308123         4.498342
 H        -3.041017         1.097341         4.538270
 H        -2.259307        -0.209399         2.924881
 H         0.502667         0.800700         3.051185
 H         0.091561        -0.703890         2.484574
