19
Iteration:  2590
 O         0.827582         0.904170         0.089242
 C        -0.211034         1.016261         1.020725
 C        -1.714082         0.915102         0.486567
 C        -1.945979         1.536105         1.888266
 C        -0.662669         2.332715         1.522719
 O        -2.992509         2.224538         2.662486
 C        -2.194752         1.755976         3.800871
 C        -1.652225         0.563549         2.959093
 C        -0.207468         0.184971         2.612924
 H         0.451516         0.625309        -0.790880
 H        -1.729468         1.662274        -0.392660
 H        -2.147723        -0.043589         0.194959
 H        -0.932032         2.988258         0.709672
 H        -0.066080         3.002205         2.085541
 H        -1.360693         2.331595         4.079597
 H        -2.829350         1.646627         4.723246
 H        -2.244641        -0.408518         2.907458
 H         0.517074         0.608673         3.222854
 H        -0.021666        -0.907874         2.543992
