19
Iteration:  4914charge 0 multiplicity 1
 O         0.914738         0.900474         0.130739
 C        -0.178713         1.003429         1.036337
 C        -1.726816         0.778348         0.531415
 C        -1.994650         1.541373         1.857341
 C        -0.777363         2.423902         1.471893
 O        -2.984749         2.341886         2.702389
 C        -2.323560         1.749687         3.866356
 C        -1.581433         0.622709         2.955196
 C        -0.093274         0.147439         2.376040
 H         1.037228        -0.102165        -0.085172
 H        -1.847863         1.446225        -0.301603
 H        -2.192504        -0.226341         0.531721
 H        -1.284040         3.161426         0.616059
 H        -0.443066         3.002374         2.377487
 H        -1.664947         2.425968         4.490092
 H        -2.955605         1.186133         4.579357
 H        -2.174051        -0.379464         3.031224
 H         0.761130         0.544655         2.975117
 H        -0.062129        -0.907555         2.119951
