19
Iteration:  3522charge 0 multiplicity 1
 O         0.843715         0.702250         0.222308
 C        -0.237205         1.041374         1.034630
 C        -1.789255         0.900846         0.538516
 C        -1.934868         1.667777         1.864191
 C        -0.641109         2.388907         1.544111
 O        -3.039630         2.179034         2.580714
 C        -2.249496         1.648886         3.867522
 C        -1.540676         0.643478         2.915144
 C        -0.164253         0.294065         2.388371
 H         0.837385         1.332095        -0.474163
 H        -1.905421         1.565530        -0.292931
 H        -2.320120        -0.032438         0.656499
 H        -0.711455         3.290403         0.905383
 H        -0.008525         2.672301         2.362857
 H        -1.689154         2.465799         4.247281
 H        -2.888283         1.224818         4.598023
 H        -2.309397        -0.148810         2.919878
 H         0.683941         0.544274         3.064281
 H         0.066300        -0.825877         2.135003
