19
Iteration:  2108
 O         0.865362         0.989087         0.062075
 C        -0.222861         0.986795         1.047294
 C        -1.800277         0.866636         0.633179
 C        -1.877454         1.704985         1.855785
 C        -0.587468         2.410396         1.586647
 O        -3.068325         2.192666         2.687105
 C        -2.273120         1.650568         3.771802
 C        -1.608440         0.596680         2.906448
 C        -0.171590         0.121328         2.419853
 H         0.933280         0.028328        -0.202869
 H        -1.826559         1.484689        -0.267590
 H        -2.126279        -0.155395         0.353043
 H        -0.812812         3.204452         0.832480
 H        -0.093899         2.914285         2.450814
 H        -1.626668         2.378213         4.157376
 H        -2.832887         1.311471         4.674342
 H        -2.410618        -0.160880         2.854658
 H         0.798945         0.249111         3.041553
 H        -0.321847        -0.981107         2.266425
