19
Iteration:  4338
 O         0.870118         0.837761         0.194540
 C        -0.291373         0.918900         1.047126
 C        -1.809202         0.857901         0.527536
 C        -1.930716         1.699146         1.866490
 C        -0.612187         2.421633         1.502726
 O        -2.963018         2.219286         2.638234
 C        -2.286821         1.648970         3.825644
 C        -1.597052         0.593949         2.929051
 C        -0.150050         0.239420         2.500007
 H         0.655321         1.142209        -0.717731
 H        -1.742696         1.373942        -0.418775
 H        -2.471497        -0.088871         0.339983
 H        -0.871036         3.020062         0.668469
 H         0.016432         2.869691         2.325356
 H        -1.541153         2.370533         4.099025
 H        -2.933599         1.330951         4.536221
 H        -2.293557        -0.218564         2.762082
 H         0.680566         0.730221         3.024055
 H         0.057678        -0.784292         2.481849
