19
Iteration:  3026
 O         0.872216         0.758383         0.153380
 C        -0.244706         1.041700         1.021377
 C        -1.733608         0.807305         0.535922
 C        -1.971027         1.612002         1.854734
 C        -0.712182         2.416869         1.584604
 O        -2.946945         2.358970         2.631101
 C        -2.300314         1.591303         3.877801
 C        -1.585477         0.570209         2.892022
 C        -0.122377         0.312748         2.424389
 H         0.750114         1.266537        -0.683684
 H        -1.837687         1.087759        -0.615400
 H        -2.167989        -0.196274         0.691765
 H        -0.965616         3.286759         0.905663
 H        -0.115008         2.790542         2.447516
 H        -1.659305         2.270766         4.381081
 H        -3.086460         1.088102         4.500584
 H        -2.329192        -0.228728         2.903835
 H         0.657664         0.571948         3.102232
 H        -0.070361        -0.817709         2.325657
