19
Iteration:   196
 O         0.921929         0.859369         0.400444
 C        -0.254259         0.932489         1.055775
 C        -1.773627         1.063122         0.383963
 C        -1.944873         1.678437         1.824357
 C        -0.544141         2.299305         1.592299
 O        -2.869389         2.410477         2.674020
 C        -2.317372         1.592383         3.786652
 C        -1.688126         0.568201         2.848512
 C        -0.350073         0.075745         2.371045
 H         0.878122         0.509064        -0.459907
 H        -1.794605         1.728426        -0.476598
 H        -2.343623         0.203003        -0.005818
 H        -0.418389         3.130594         0.910393
 H         0.001367         2.556151         2.552098
 H        -1.552728         2.136925         4.411119
 H        -3.061563         1.139372         4.459884
 H        -2.434942        -0.223174         2.735654
 H         0.619373         0.217484         2.967733
 H        -0.320722        -1.001210         2.173092
