19
Iteration:  1884
 O         0.867908         0.884049         0.033069
 C        -0.211226         0.969850         1.040638
 C        -1.722373         0.843767         0.519079
 C        -1.997238         1.689572         1.789186
 C        -0.599676         2.413025         1.566664
 O        -3.010267         2.231613         2.753476
 C        -2.329782         1.535459         3.895509
 C        -1.563114         0.761048         2.846269
 C        -0.207691         0.226869         2.507926
 H         1.048418        -0.035414        -0.296763
 H        -1.758843         1.314233        -0.481686
 H        -2.350583        -0.135743         0.459301
 H        -0.712797         3.223606         0.907835
 H        -0.043993         2.871517         2.344204
 H        -1.628273         1.992167         4.561500
 H        -3.121052         1.081665         4.404097
 H        -2.298516        -0.061394         2.763632
 H         0.568861         0.726953         3.119248
 H         0.086591        -0.873167         2.449913
