19
Iteration:  1483
 O         0.829970         0.846853         0.106837
 C        -0.290011         1.013647         1.047407
 C        -1.689676         0.880594         0.470763
 C        -1.952745         1.679831         1.865667
 C        -0.587357         2.464057         1.560354
 O        -3.036476         2.112259         2.661011
 C        -2.247901         1.750133         3.841646
 C        -1.553076         0.668128         2.967452
 C        -0.259509         0.170150         2.427944
 H         1.270477         0.074471         0.432986
 H        -1.812126         1.498923        -0.428215
 H        -2.207720        -0.079431         0.323648
 H        -0.714782         3.060586         0.650653
 H         0.047859         2.790872         2.316322
 H        -1.513267         2.445436         4.173902
 H        -2.938670         1.461831         4.655678
 H        -2.222948        -0.211875         2.948453
 H         0.686798         0.224595         3.036580
 H        -0.393219        -0.903725         2.227854
