19
Iteration:  3189charge 0 multiplicity 1
 O         0.825812         0.671248         0.248338
 C        -0.262740         1.041216         1.034747
 C        -1.764604         0.904442         0.509243
 C        -1.958494         1.659854         1.793407
 C        -0.680886         2.488684         1.509999
 O        -3.003236         2.200870         2.647374
 C        -2.219905         1.581122         3.822659
 C        -1.577154         0.641200         2.908334
 C        -0.100778         0.241787         2.462410
 H         0.902588         1.316540        -0.468892
 H        -1.926074         1.651513        -0.252145
 H        -2.385951         0.093756         0.390963
 H        -0.861011         3.298614         0.821877
 H        -0.368519         2.930539         2.410032
 H        -1.607774         2.468336         4.113394
 H        -2.783774         1.247268         4.759285
 H        -2.149119        -0.262024         2.827781
 H         0.651952         0.683932         3.198085
 H         0.081215        -0.872796         2.181281
