19
Iteration:  3587
 O         0.867231         0.798282         0.300305
 C        -0.236816         1.002786         1.033672
 C        -1.847193         0.843801         0.490167
 C        -1.951430         1.654334         1.791807
 C        -0.669497         2.435990         1.516787
 O        -2.974104         2.223225         2.688526
 C        -2.207789         1.716565         3.798813
 C        -1.592190         0.597421         2.919429
 C        -0.182861         0.196772         2.379552
 H         0.993268         1.400118        -0.493219
 H        -2.111785         1.291630        -0.569104
 H        -2.269622        -0.128054         0.656271
 H        -0.717752         3.231635         0.738234
 H        -0.017198         2.682378         2.308034
 H        -1.693833         2.441374         4.375802
 H        -2.846022         1.306634         4.609091
 H        -2.254047        -0.258928         2.829796
 H         0.622199         0.537658         3.114641
 H         0.196693        -1.001740         2.251603
