19
Iteration:  2637
 O         0.847715         0.652045         0.204025
 C        -0.293980         1.008575         1.013130
 C        -1.807360         0.882628         0.482257
 C        -1.970069         1.633827         1.869270
 C        -0.663695         2.445162         1.469027
 O        -2.998540         2.231238         2.688015
 C        -2.309155         1.643049         3.880731
 C        -1.474900         0.686501         2.994333
 C        -0.121489         0.286318         2.329104
 H         1.513181         1.410311         0.160923
 H        -2.209924         1.409945        -0.474819
 H        -2.253739        -0.186265         0.517959
 H        -0.870211         3.216003         0.712544
 H        -0.018799         2.952778         2.184216
 H        -2.096163         2.515095         4.584786
 H        -2.937958         0.997103         4.454842
 H        -2.021984        -0.278410         3.054340
 H         0.840506         0.766929         2.690095
 H         0.093057        -0.755768         2.190167
