19
Iteration:  1886charge 0 multiplicity 1
 O         0.870769         0.887044         0.039937
 C        -0.212808         0.959347         1.045638
 C        -1.739717         0.839726         0.525645
 C        -2.008316         1.688749         1.782169
 C        -0.615463         2.413421         1.549356
 O        -2.989578         2.239486         2.750152
 C        -2.323936         1.533047         3.914284
 C        -1.567214         0.757514         2.826858
 C        -0.191428         0.224809         2.509242
 H         1.075297        -0.051791        -0.294824
 H        -1.716140         1.308804        -0.456394
 H        -2.313280        -0.096263         0.455991
 H        -0.721830         3.241503         0.888139
 H        -0.093299         2.838444         2.429188
 H        -1.670930         1.985089         4.656528
 H        -3.143202         1.054347         4.343182
 H        -2.287722        -0.014791         2.716599
 H         0.576809         0.763114         3.182293
 H         0.041335        -0.822741         2.398246
