19
Iteration:  1809
 O         0.867032         0.991803         0.172051
 C        -0.248003         0.963452         1.036678
 C        -1.717357         0.808744         0.449766
 C        -1.910147         1.624116         1.884347
 C        -0.585867         2.412884         1.535891
 O        -3.022588         2.260775         2.788334
 C        -2.240531         1.663420         3.836318
 C        -1.664195         0.555020         2.876587
 C        -0.264327         0.193278         2.353908
 H         1.049608         0.076308        -0.066075
 H        -1.775243         1.329441        -0.487450
 H        -2.180220        -0.213443         0.527527
 H        -0.782361         2.878041         0.535790
 H        -0.087121         3.094217         2.276776
 H        -1.512054         2.487597         4.110960
 H        -2.710507         1.286728         4.719321
 H        -2.508473        -0.120638         2.823921
 H         0.600817         0.616398         2.938617
 H        -0.103165        -0.897766         2.377664
