19
Iteration:   497charge 0 multiplicity 1
 O         0.814532         0.718646         0.180925
 C        -0.261168         0.919593         1.028939
 C        -1.700481         1.028268         0.506232
 C        -1.861703         1.746232         1.830870
 C        -0.552749         2.333208         1.699611
 O        -3.019485         2.205127         2.542151
 C        -2.236466         1.663491         3.866000
 C        -1.655407         0.647162         2.858191
 C        -0.315801         0.180149         2.450510
 H         1.164007         1.600733         0.113313
 H        -1.519016         1.609390        -0.408342
 H        -2.546273         0.339381         0.384991
 H        -0.476465         3.114277         0.882062
 H         0.129916         2.574651         2.400937
 H        -1.494718         2.374071         4.231857
 H        -2.902920         1.252694         4.612331
 H        -2.382545        -0.167624         2.717455
 H         0.578418         0.450664         3.059242
 H        -0.330946        -0.933446         2.350221
