19
Iteration:  3082charge 0 multiplicity 1
 O         0.945803         0.736376         0.225008
 C        -0.202782         1.023634         1.031685
 C        -1.782676         0.853820         0.494336
 C        -2.002532         1.586577         1.820607
 C        -0.666573         2.432678         1.534874
 O        -3.064616         2.134908         2.747460
 C        -2.190746         1.742230         3.849070
 C        -1.552403         0.711077         2.907602
 C        -0.229462         0.235917         2.306773
 H         0.999700         1.468113        -0.359061
 H        -2.015745         1.570865        -0.493240
 H        -2.170821        -0.133614         0.333593
 H        -0.746459         3.183131         0.758914
 H        -0.300014         2.668449         2.545122
 H        -1.522185         2.477093         4.235545
 H        -2.844531         1.455573         4.721351
 H        -2.319589        -0.083526         2.828965
 H         0.544756         0.505964         3.018065
 H        -0.255823        -0.872361         2.316205
