19
Iteration:  2337
 O         0.795531         0.832578         0.157144
 C        -0.184791         1.042343         1.105090
 C        -1.751453         0.930165         0.581174
 C        -1.942554         1.687961         1.891281
 C        -0.661353         2.413729         1.625640
 O        -2.912347         2.229590         2.595767
 C        -2.297137         1.568312         3.808533
 C        -1.561675         0.608586         2.835305
 C        -0.192983         0.197464         2.407345
 H         0.306702         0.599755        -0.679457
 H        -1.909569         1.508181        -0.358525
 H        -2.415469        -0.026185         0.505583
 H        -0.640283         3.106948         0.828687
 H        -0.074950         2.831047         2.371224
 H        -1.624644         2.317518         4.310303
 H        -3.025180         1.241156         4.614237
 H        -2.131143        -0.347591         2.794581
 H         0.610391         0.462017         3.118483
 H        -0.178057        -0.846176         2.198367
