19
Iteration:  4434charge 0 multiplicity 1
 O         0.910283         0.750654         0.267247
 C        -0.277226         0.940969         0.996588
 C        -1.854400         0.850005         0.498747
 C        -1.955104         1.651566         1.788476
 C        -0.736257         2.410352         1.527191
 O        -2.900342         2.284671         2.715486
 C        -2.272802         1.590282         3.871191
 C        -1.590244         0.609298         2.838466
 C        -0.152165         0.324581         2.450876
 H         0.991032         1.323033        -0.486309
 H        -1.880993         1.444241        -0.373945
 H        -2.251119        -0.067181         0.229411
 H        -0.841535         2.957257         0.683346
 H        -0.058958         2.873855         2.289135
 H        -1.547291         2.253632         4.418439
 H        -3.149013         1.086429         4.466765
 H        -2.261211        -0.197946         2.702672
 H         0.519658         1.049577         2.917731
 H         0.319528        -0.598052         2.578438
