19
Iteration:    38
 O         0.940660         0.799967         0.296457
 C        -0.288501         0.983622         1.052583
 C        -1.708104         1.160472         0.445908
 C        -1.851842         1.757035         1.818883
 C        -0.486429         2.365470         1.728189
 O        -2.914294         2.272774         2.687694
 C        -2.352257         1.662813         3.808954
 C        -1.778668         0.532196         2.767628
 C        -0.389696         0.009953         2.325373
 H         1.015586        -0.167482         0.134681
 H        -1.601447         1.825222        -0.439917
 H        -2.411047         0.365365         0.125625
 H        -0.391987         3.274636         1.132961
 H         0.159657         2.463986         2.637397
 H        -1.402703         2.185873         4.051216
 H        -3.112058         1.477203         4.602276
 H        -2.588414        -0.184850         2.430897
 H         0.442782         0.267907         2.969866
 H        -0.324883        -1.103094         2.044364
