19
Iteration:  4820charge 0 multiplicity 1
 O         0.971068         0.796131         0.208076
 C        -0.222776         1.008799         0.993583
 C        -1.827226         0.817206         0.486397
 C        -1.937780         1.667481         1.861265
 C        -0.723949         2.406642         1.459042
 O        -2.986626         2.291915         2.733344
 C        -2.361060         1.605453         3.906723
 C        -1.568293         0.626135         2.927289
 C        -0.096266         0.300828         2.365285
 H         0.797879         0.269168        -0.535955
 H        -2.054413         1.372489        -0.417968
 H        -2.318344        -0.186838         0.670708
 H        -0.918210         3.056080         0.633601
 H        -0.157178         2.917998         2.311081
 H        -1.801067         2.319032         4.420294
 H        -3.119935         1.186372         4.664968
 H        -2.154789        -0.254059         2.795073
 H         0.716883         0.769245         2.879345
 H         0.052301        -0.822733         2.326081
