19
Iteration:  3500
 O         0.822543         0.681544         0.197746
 C        -0.206983         0.971050         1.069814
 C        -1.779130         0.945664         0.502437
 C        -1.913033         1.679556         1.867437
 C        -0.653665         2.512421         1.568927
 O        -3.019323         2.160550         2.668176
 C        -2.364254         1.647872         3.825507
 C        -1.541982         0.637519         2.916357
 C        -0.124741         0.254862         2.394074
 H         0.769076         1.177808        -0.691405
 H        -1.937672         1.623197        -0.322230
 H        -2.227337        -0.089031         0.549823
 H        -0.644439         3.125131         0.598183
 H         0.063825         3.041433         2.177905
 H        -1.541421         2.317958         4.066434
 H        -3.021514         1.336347         4.591155
 H        -2.240438        -0.215711         2.760967
 H         0.715007         0.545332         3.101701
 H         0.154785        -0.910259         2.385637
