19
Iteration:  2880
 O         0.878809         0.789216         0.199974
 C        -0.269351         0.969460         1.052144
 C        -1.793496         0.835727         0.471292
 C        -1.979754         1.568061         1.748123
 C        -0.717030         2.387269         1.565341
 O        -2.989064         2.263636         2.736846
 C        -2.230627         1.726443         3.867992
 C        -1.611511         0.652860         2.889896
 C        -0.078663         0.220392         2.415753
 H         0.933932         1.361105        -0.554145
 H        -1.744859         1.403297        -0.517857
 H        -2.266418        -0.266870         0.385760
 H        -0.729248         3.240095         0.898962
 H        -0.175008         2.760577         2.432016
 H        -1.556976         2.519258         4.254862
 H        -2.891032         1.253330         4.521538
 H        -2.405015        -0.077110         2.944099
 H         0.692089         0.668183         3.050247
 H         0.010603        -0.814551         2.274196
