19
Iteration:  3170
 O         0.770035         0.665883         0.254045
 C        -0.271522         1.080442         1.084131
 C        -1.770133         0.913698         0.514384
 C        -1.932977         1.652276         1.863748
 C        -0.630669         2.504754         1.523633
 O        -2.969123         2.158503         2.640985
 C        -2.305745         1.628657         3.830955
 C        -1.520886         0.607933         2.927618
 C        -0.118498         0.309575         2.361153
 H         0.811957         1.152560        -0.539674
 H        -1.841786         1.567409        -0.459628
 H        -2.061387        -0.141349         0.531212
 H        -0.861314         3.060761         0.645484
 H         0.041912         2.987634         2.246278
 H        -1.756752         2.292611         4.486798
 H        -3.229659         1.200062         4.354979
 H        -2.174647        -0.232860         2.828328
 H         0.734217         0.495955         2.867410
 H         0.066481        -0.726151         2.258855
