19
Iteration:  4453charge 0 multiplicity 1
 O         0.817632         0.729091         0.230415
 C        -0.236322         1.076012         1.072622
 C        -1.727436         0.822665         0.503882
 C        -1.964737         1.618834         1.845405
 C        -0.659742         2.436686         1.457680
 O        -2.912915         2.346717         2.689054
 C        -2.332914         1.553720         3.835757
 C        -1.598699         0.566929         2.907459
 C        -0.110542         0.320407         2.438965
 H         0.633828         1.233084        -0.619173
 H        -1.880630         1.423938        -0.456321
 H        -2.178457        -0.134909         0.595635
 H        -1.003264         3.204490         0.597002
 H        -0.268500         2.899907         2.375181
 H        -1.712745         2.225814         4.318044
 H        -3.152076         1.047149         4.333181
 H        -2.152889        -0.390430         2.864829
 H         0.740786         0.537562         3.114962
 H         0.008059        -0.781225         2.231331
