19
Iteration:  2599charge 0 multiplicity 1
 O         0.848508         0.841684         0.093741
 C        -0.175505         0.982128         1.036411
 C        -1.726501         0.887139         0.541903
 C        -1.953591         1.636298         1.863777
 C        -0.647672         2.406746         1.541586
 O        -3.037138         2.218085         2.658779
 C        -2.146826         1.737564         3.813379
 C        -1.642542         0.511569         2.915946
 C        -0.194960         0.198656         2.524983
 H         0.285987         1.055538        -0.701014
 H        -1.790376         1.395785        -0.391035
 H        -2.067069        -0.103080         0.494601
 H        -1.010181         2.990143         0.689476
 H        -0.185938         3.068814         2.341564
 H        -1.459482         2.485953         4.003787
 H        -2.835982         1.479796         4.659992
 H        -2.477431        -0.228287         2.951994
 H         0.409398         0.697190         3.261269
 H        -0.054625        -0.903006         2.594275
