19
Iteration:  3572charge 0 multiplicity 1
 O         0.895900         0.822589         0.254148
 C        -0.267856         1.013170         1.066261
 C        -1.804548         0.810722         0.567880
 C        -1.987090         1.623386         1.823793
 C        -0.635177         2.395856         1.521682
 O        -2.947863         2.269640         2.652932
 C        -2.190837         1.646812         3.811486
 C        -1.613369         0.584908         2.856838
 C        -0.217973         0.227922         2.429523
 H         0.778991         1.529524        -0.463779
 H        -2.038277         1.453296        -0.438816
 H        -2.166763        -0.241541         0.518983
 H        -0.821469         3.068116         0.676271
 H        -0.176084         3.116452         2.318675
 H        -1.302153         2.345664         4.021504
 H        -3.008715         1.297025         4.619123
 H        -2.366751        -0.238415         2.892555
 H         0.694757         0.599158         2.958443
 H        -0.216808        -0.822597         2.261355
