19
Iteration:   478
 O         0.862089         0.624959         0.185682
 C        -0.194745         0.987124         1.079275
 C        -1.773045         1.037075         0.470643
 C        -1.962171         1.782719         1.791266
 C        -0.407623         2.418168         1.616642
 O        -3.088062         2.236189         2.732411
 C        -2.320618         1.608919         3.802762
 C        -1.667003         0.662423         2.798928
 C        -0.237125         0.109878         2.438321
 H         1.167958         1.423190        -0.175022
 H        -1.755655         1.739715        -0.404920
 H        -2.171447        -0.031379         0.344255
 H        -0.288338         3.265872         0.738883
 H        -0.056548         2.672074         2.648083
 H        -1.631665         2.433991         4.132303
 H        -3.042616         1.184686         4.501246
 H        -2.410255        -0.157563         2.786037
 H         0.583954         0.561232         3.073805
 H        -0.097825        -0.934003         2.493661
