19
Iteration:  4734charge 0 multiplicity 1
 O         0.871806         0.696152         0.229353
 C        -0.308770         0.995185         1.008072
 C        -1.800050         0.907427         0.510559
 C        -1.953026         1.665249         1.858979
 C        -0.664499         2.443701         1.552760
 O        -3.056613         2.076995         2.681701
 C        -2.262052         1.790791         3.828266
 C        -1.492182         0.623366         2.929004
 C        -0.128579         0.224615         2.326741
 H         1.127424         1.606662         0.086541
 H        -1.880704         1.588063        -0.325368
 H        -2.288117        -0.079504         0.441762
 H        -0.783352         3.273723         0.760000
 H         0.057093         2.967614         2.379793
 H        -1.659369         2.670060         4.070960
 H        -2.847433         1.406389         4.611186
 H        -2.250457        -0.147771         2.822046
 H         0.706792         0.604601         2.822096
 H         0.020260        -0.859795         2.383916
