19
Iteration:  2523
 O         0.791562         0.682320         0.135710
 C        -0.211747         1.030891         1.075321
 C        -1.671679         0.956656         0.460857
 C        -1.941903         1.643925         1.845685
 C        -0.648763         2.457066         1.449126
 O        -2.956646         2.175388         2.737302
 C        -2.259767         1.603477         3.928381
 C        -1.614474         0.646111         2.886783
 C        -0.251649         0.251659         2.438881
 H         1.472283         1.387794         0.178467
 H        -1.851273         1.565278        -0.433201
 H        -2.206544         0.005921         0.385096
 H        -0.971813         3.057551         0.620519
 H         0.048732         3.181397         1.886748
 H        -1.709346         2.366495         4.423531
 H        -3.010235         1.148197         4.641067
 H        -2.428399        -0.126749         2.801501
 H         0.511532         0.630574         3.075349
 H        -0.075232        -0.807159         2.235786
