19
Iteration:  2425
 O         0.868560         0.899613         0.192134
 C        -0.229431         1.013973         1.010762
 C        -1.790285         0.892628         0.500841
 C        -2.004658         1.647700         1.812086
 C        -0.645123         2.369612         1.634677
 O        -2.963738         2.273026         2.711294
 C        -2.169516         1.632079         3.785254
 C        -1.689067         0.576224         2.842548
 C        -0.214995         0.218079         2.356264
 H         1.264412        -0.010836         0.300034
 H        -1.881045         1.522890        -0.438066
 H        -2.310067        -0.119324         0.501411
 H        -0.579925         3.230163         1.004738
 H        -0.099668         2.530478         2.535750
 H        -1.390922         2.335787         4.137867
 H        -2.717632         1.250869         4.703470
 H        -2.430825        -0.264523         2.954343
 H         0.564826         0.630199         2.985872
 H        -0.043961        -0.841641         2.345899
