19
Iteration:    11
 O         0.840675         0.750572         0.174893
 C        -0.178044         0.988703         1.212648
 C        -1.746675         1.199393         0.427824
 C        -1.911122         1.722244         1.817035
 C        -0.465336         2.296360         1.779974
 O        -2.969132         2.381116         2.645085
 C        -2.314613         1.558047         3.775139
 C        -1.690042         0.623168         2.737113
 C        -0.419757         0.004001         2.365013
 H         1.746889         0.439145         0.524370
 H        -1.674491         1.966266        -0.337454
 H        -2.166706         0.238884         0.145578
 H        -0.419622         3.018419         0.844114
 H         0.206127         2.638444         2.559812
 H        -1.591470         2.031305         4.446772
 H        -3.068638         1.004790         4.348042
 H        -2.428920        -0.137183         2.622868
 H         0.501795         0.244736         3.046594
 H        -0.409882        -1.026671         2.101946
