19
Iteration:  1859charge 0 multiplicity 1
 O         0.759663         0.866547         0.162001
 C        -0.256125         1.043632         1.073228
 C        -1.730896         0.981175         0.603594
 C        -1.946487         1.603124         1.910205
 C        -0.543914         2.415459         1.525615
 O        -3.036112         2.123990         2.593756
 C        -2.287901         1.710593         3.873952
 C        -1.594429         0.530300         2.900091
 C        -0.108077         0.234851         2.371773
 H         0.770508        -0.036100        -0.279975
 H        -1.781598         1.639238        -0.298570
 H        -2.158996        -0.018475         0.330421
 H        -0.669095         3.246882         0.804752
 H         0.027316         2.851187         2.349346
 H        -1.514128         2.390747         4.219785
 H        -3.097672         1.523071         4.635274
 H        -2.424934        -0.228700         2.793786
 H         0.620308         0.552296         3.073251
 H         0.201032        -0.777425         1.981498
