19
Iteration:  3843
 O         0.794295         0.643408         0.295731
 C        -0.223417         1.062431         1.067693
 C        -1.767345         0.858762         0.468289
 C        -1.925389         1.696463         1.766547
 C        -0.656753         2.434730         1.579402
 O        -3.011710         2.186468         2.722722
 C        -2.298328         1.652139         3.812830
 C        -1.556370         0.658842         2.852846
 C        -0.097793         0.331482         2.342212
 H         0.810380         1.043279        -0.600720
 H        -1.802047         1.389708        -0.506179
 H        -2.280731        -0.128361         0.478963
 H        -0.808578         3.146079         0.847032
 H        -0.123002         2.844924         2.469064
 H        -1.746145         2.426481         4.404916
 H        -2.993821         1.353620         4.547548
 H        -2.238137        -0.231125         2.949850
 H         0.741914         0.585409         3.028810
 H         0.161799        -0.830885         2.213124
