19
Iteration:  3966charge 0 multiplicity 1
 O         0.870003         0.693378         0.255321
 C        -0.223682         0.975874         1.011118
 C        -1.787740         0.899929         0.531513
 C        -1.954696         1.715926         1.837609
 C        -0.663807         2.446018         1.545522
 O        -3.031822         2.158180         2.688518
 C        -2.292666         1.686122         3.811248
 C        -1.558577         0.658201         2.857014
 C        -0.123627         0.257551         2.410902
 H         0.726021         0.998762        -0.650057
 H        -1.920263         1.600169        -0.344463
 H        -2.256976        -0.013864         0.510394
 H        -0.620095         3.070038         0.711216
 H        -0.198167         2.876497         2.391609
 H        -1.562468         2.454221         4.324638
 H        -2.937430         1.161888         4.499197
 H        -2.317322        -0.142891         2.805500
 H         0.725926         0.778589         2.995628
 H         0.146028        -0.870370         2.401521
