19
Iteration:  3566
 O         0.881575         0.833652         0.234120
 C        -0.234526         0.996719         1.061032
 C        -1.790704         0.808116         0.566625
 C        -2.005514         1.610692         1.837172
 C        -0.668299         2.401174         1.552286
 O        -2.952092         2.278183         2.630338
 C        -2.183542         1.631869         3.845318
 C        -1.663987         0.616859         2.864329
 C        -0.203314         0.250439         2.402465
 H         0.902305         1.441512        -0.477129
 H        -1.749291         1.416087        -0.300187
 H        -2.164079        -0.193251         0.463772
 H        -0.865837         2.949238         0.602329
 H        -0.103918         3.020150         2.191180
 H        -1.383565         2.242781         4.188856
 H        -2.807003         1.478152         4.668622
 H        -2.294712        -0.264806         2.723065
 H         0.720356         0.488054         2.966133
 H        -0.189343        -0.938462         2.397416
