19
Iteration:   610
 O         0.777813         0.576048         0.145681
 C        -0.281026         1.059278         1.074286
 C        -1.619625         0.975966         0.430288
 C        -1.896390         1.696955         1.784598
 C        -0.558644         2.428673         1.642583
 O        -2.964175         2.302607         2.669109
 C        -2.427811         1.639119         3.894213
 C        -1.636024         0.607978         2.942339
 C        -0.232872         0.225751         2.335814
 H         1.431478         1.226195         0.137571
 H        -1.473260         1.484431        -0.592194
 H        -1.925936        -0.144596         0.307349
 H        -0.439100         3.444257         1.023813
 H         0.082920         2.468527         2.567167
 H        -1.815383         2.351986         4.547661
 H        -3.188137         1.148152         4.585740
 H        -2.412803        -0.236266         2.856993
 H         0.636538         0.640845         2.986655
 H        -0.154323        -0.830255         2.090858
