19
Iteration:  1193
 O         0.881892         0.776648         0.107477
 C        -0.234841         0.909819         1.046986
 C        -1.867246         0.809741         0.542060
 C        -1.946517         1.685517         1.811481
 C        -0.594208         2.473040         1.543707
 O        -3.001954         2.221142         2.655555
 C        -2.249264         1.680357         3.886559
 C        -1.568972         0.677809         2.870271
 C        -0.202785         0.181729         2.460824
 H         1.200610         1.635940         0.291762
 H        -2.055096         1.337325        -0.403479
 H        -2.335432        -0.198327         0.508478
 H        -0.674532         3.209659         0.777342
 H         0.061166         2.768453         2.377000
 H        -1.616086         2.577490         4.378966
 H        -2.781696         1.172041         4.641194
 H        -2.383449        -0.005856         2.730830
 H         0.597387         0.614040         3.096463
 H        -0.186953        -0.878172         2.246269
