19
Iteration:   722
 O         0.793714         0.741212         0.153645
 C        -0.254971         0.963022         1.093941
 C        -1.724624         1.030221         0.568617
 C        -1.964933         1.736639         1.831452
 C        -0.454107         2.436285         1.564577
 O        -3.077524         2.205771         2.651677
 C        -2.288554         1.605142         3.817298
 C        -1.660860         0.640810         2.881059
 C        -0.196282         0.168360         2.350223
 H         1.595909         0.558232         0.710958
 H        -1.837409         1.690413        -0.337508
 H        -2.253352         0.072263         0.349552
 H        -0.450250         3.041051         0.742899
 H         0.321877         2.816905         2.336783
 H        -1.526801         2.347819         4.292209
 H        -3.061080         1.399148         4.608965
 H        -2.273623        -0.288979         2.813551
 H         0.695947         0.442944         2.957180
 H        -0.210059        -0.976704         2.151000
