19
Iteration:   777charge 0 multiplicity 1
 O         0.697734         0.714053         0.143561
 C        -0.192433         1.060421         1.114199
 C        -1.627983         0.879165         0.543004
 C        -1.853033         1.774461         1.836689
 C        -0.566552         2.473234         1.571291
 O        -2.947962         2.366569         2.675354
 C        -2.358785         1.541248         3.834839
 C        -1.662941         0.529968         2.879357
 C        -0.245782         0.140217         2.354901
 H         1.539007         1.026193         0.416447
 H        -1.780185         1.502231        -0.390709
 H        -2.011742        -0.184051         0.474229
 H        -0.727152         2.999836         0.752529
 H         0.052408         2.996506         2.359849
 H        -1.651095         2.292525         4.375224
 H        -3.259076         1.252002         4.447062
 H        -2.453475        -0.230978         2.609608
 H         0.477126         0.438780         3.142552
 H        -0.156460        -0.945319         1.899970
