19
Iteration:  2919
 O         0.908281         0.841079         0.189090
 C        -0.170532         1.022664         1.062758
 C        -1.807443         0.815034         0.544159
 C        -1.987140         1.648992         1.878401
 C        -0.655132         2.404163         1.458284
 O        -2.979833         2.213116         2.666464
 C        -2.262555         1.747383         3.837174
 C        -1.663699         0.604133         2.963679
 C        -0.151991         0.116267         2.372570
 H         0.859514         1.662778        -0.418216
 H        -1.830831         1.350702        -0.354861
 H        -2.313731        -0.079756         0.577072
 H        -0.976293         3.041898         0.608381
 H        -0.060673         2.920113         2.244699
 H        -1.568802         2.451924         4.318311
 H        -2.949603         1.516262         4.748321
 H        -2.406750        -0.236150         2.857336
 H         0.787559         0.426077         2.939972
 H        -0.071484        -1.009073         2.189754
