19
Iteration:  1684
 O         0.960534         0.957687         0.132830
 C        -0.269283         1.030893         0.959025
 C        -1.868694         0.861964         0.516391
 C        -1.993211         1.562436         1.829224
 C        -0.654259         2.338360         1.543561
 O        -2.889442         2.277185         2.725997
 C        -2.335292         1.697366         3.850984
 C        -1.589681         0.560144         2.914332
 C        -0.194562         0.201355         2.493386
 H         0.935342         0.048545        -0.281837
 H        -1.853917         1.470897        -0.485305
 H        -2.204351        -0.180491         0.176865
 H        -0.837306         3.043907         0.776079
 H        -0.069798         2.760795         2.352636
 H        -1.642453         2.461023         4.211241
 H        -2.937892         1.364429         4.709964
 H        -2.343629        -0.261172         2.956367
 H         0.640423         0.666481         3.061088
 H        -0.021166        -0.933073         2.302365
