19
Iteration:  3470charge 0 multiplicity 1
 O         0.842848         0.745936         0.188791
 C        -0.233073         0.956393         1.020297
 C        -1.709848         0.840018         0.475473
 C        -2.006429         1.612432         1.829671
 C        -0.639134         2.499405         1.606442
 O        -2.983041         2.277155         2.713020
 C        -2.309302         1.628876         3.845374
 C        -1.591875         0.642116         2.871373
 C        -0.151924         0.258236         2.391974
 H         0.668824         0.959908        -0.702761
 H        -1.855968         1.449642        -0.386697
 H        -2.022875        -0.287573         0.448476
 H        -0.622275         3.210429         0.714044
 H         0.064163         2.871030         2.377359
 H        -1.572760         2.308927         4.499728
 H        -3.007309         1.203508         4.579967
 H        -2.277075        -0.239767         2.893979
 H         0.441686         0.876349         3.021940
 H         0.063968        -0.753402         2.441136
