19
Iteration:    42
 O         0.947047         0.798688         0.323466
 C        -0.316941         0.983873         1.020558
 C        -1.682756         1.144642         0.459258
 C        -1.861069         1.738884         1.822221
 C        -0.475520         2.346556         1.760263
 O        -2.901976         2.285567         2.686315
 C        -2.334933         1.652590         3.795906
 C        -1.794912         0.526235         2.797822
 C        -0.403608         0.034994         2.268930
 H         0.896939        -0.160313         0.028180
 H        -1.700958         1.840504        -0.400543
 H        -2.262096         0.254762         0.156611
 H        -0.461381         3.350202         1.067293
 H         0.227385         2.511769         2.553632
 H        -1.431474         2.229816         4.141719
 H        -3.170914         1.459810         4.494852
 H        -2.559128        -0.117359         2.411881
 H         0.449189         0.374319         3.008745
 H        -0.329258        -0.999747         2.088990
