19
Iteration:  1245charge 0 multiplicity 1
 O         0.669520         0.726791        -0.008338
 C        -0.170758         1.010148         1.046025
 C        -1.700070         0.915181         0.540816
 C        -1.935436         1.702784         1.768671
 C        -0.660933         2.415285         1.630809
 O        -2.960213         2.201573         2.636558
 C        -2.300640         1.625315         3.811599
 C        -1.581996         0.664054         2.928450
 C        -0.135690         0.279889         2.536907
 H         1.461084         0.513712         0.473951
 H        -1.955911         1.246746        -0.473503
 H        -2.038111        -0.108620         0.757018
 H        -0.664495         3.332269         0.947773
 H        -0.231764         2.838932         2.552008
 H        -1.607322         2.256220         4.243569
 H        -3.044394         1.271722         4.500749
 H        -2.285108        -0.190756         2.848094
 H         0.715636         0.654672         3.116492
 H         0.060043        -0.799680         2.610435
