19
Iteration:  4695
 O         0.866193         0.846991         0.148846
 C        -0.254714         0.952614         1.042300
 C        -1.695361         0.724742         0.517703
 C        -1.960605         1.606482         1.828507
 C        -0.757061         2.450592         1.537971
 O        -2.897565         2.339453         2.721623
 C        -2.246103         1.619042         3.841052
 C        -1.624189         0.616801         2.864947
 C        -0.227714         0.240447         2.468843
 H         1.007672         1.640570        -0.408408
 H        -1.920493         1.109111        -0.535644
 H        -2.098421        -0.262352         0.375012
 H        -0.792536         3.090625         0.667465
 H        -0.268568         2.846627         2.327788
 H        -1.566355         2.355046         4.340010
 H        -2.960731         1.193200         4.581936
 H        -2.321960        -0.248384         2.813120
 H         0.516772         0.790783         3.160962
 H         0.037170        -0.807114         2.338882
