19
Iteration:  3987
 O         0.811049         0.670420         0.161162
 C        -0.227637         1.058805         1.063146
 C        -1.732186         0.800541         0.518262
 C        -1.989770         1.643962         1.851310
 C        -0.583482         2.451146         1.617598
 O        -3.018137         2.290455         2.603018
 C        -2.337769         1.585066         3.833824
 C        -1.595239         0.626338         2.920996
 C        -0.115075         0.357490         2.420555
 H         0.617402         1.257187        -0.658168
 H        -1.896909         1.361615        -0.456287
 H        -2.059553        -0.177037         0.586258
 H        -0.879774         3.253338         1.025997
 H         0.130074         2.734587         2.374406
 H        -1.479146         2.346944         4.282337
 H        -3.045729         1.298478         4.588521
 H        -2.045697        -0.387088         2.911812
 H         0.804825         0.653185         2.981681
 H         0.076675        -0.777883         2.229761
