19
Iteration:   849
 O         0.807309         0.760966         0.128589
 C        -0.191520         1.076679         1.121214
 C        -1.690348         0.927012         0.458701
 C        -1.938605         1.652502         1.830119
 C        -0.639298         2.396705         1.708624
 O        -2.945074         2.307564         2.610440
 C        -2.179405         1.705601         3.857814
 C        -1.731285         0.599656         2.881651
 C        -0.270176         0.033211         2.393192
 H         1.372865         1.476615        -0.074111
 H        -1.807331         1.471110        -0.477419
 H        -2.059734        -0.098384         0.513314
 H        -0.770537         3.285552         0.758103
 H        -0.117794         2.780325         2.543670
 H        -1.434129         2.329724         4.373179
 H        -2.936483         1.187376         4.445117
 H        -2.617617        -0.051424         2.708703
 H         0.628665         0.024857         3.059614
 H        -0.427365        -0.978532         2.110037
