19
Iteration:  2879
 O         0.879981         0.781960         0.193758
 C        -0.268303         0.970784         1.050430
 C        -1.788019         0.841515         0.465623
 C        -1.979391         1.560509         1.743698
 C        -0.719158         2.395482         1.563406
 O        -2.996815         2.268237         2.744731
 C        -2.233771         1.728601         3.868481
 C        -1.609401         0.648004         2.882410
 C        -0.074916         0.214560         2.422624
 H         0.925298         1.350924        -0.545960
 H        -1.736122         1.437781        -0.490622
 H        -2.241912        -0.270192         0.374299
 H        -0.742293         3.221524         0.873109
 H        -0.184904         2.760922         2.433622
 H        -1.562288         2.527244         4.287553
 H        -2.894188         1.266316         4.575344
 H        -2.393366        -0.072181         2.959633
 H         0.684447         0.675905         3.096343
 H         0.028780        -0.799786         2.265117
