19
Iteration:  3134
 O         0.907437         0.806827         0.072520
 C        -0.285428         0.968849         1.062885
 C        -1.765361         0.825171         0.468458
 C        -1.981383         1.701201         1.802252
 C        -0.589320         2.396145         1.577827
 O        -2.985718         2.212281         2.706166
 C        -2.278694         1.621857         3.859204
 C        -1.619990         0.661300         2.898415
 C        -0.125021         0.266691         2.554470
 H         0.544452         1.178264        -0.701170
 H        -1.948066         1.265055        -0.502610
 H        -2.320080        -0.083261         0.444600
 H        -0.696110         3.073139         0.732565
 H        -0.055826         2.860779         2.350214
 H        -1.611187         2.242456         4.543373
 H        -3.241249         1.281292         4.382129
 H        -2.255996        -0.212180         2.805243
 H         0.551707         0.861042         3.150353
 H        -0.026991        -0.848880         2.457342
