19
Iteration:  1323charge 0 multiplicity 1
 O         0.739722         0.852769         0.093518
 C        -0.246553         0.999079         1.053611
 C        -1.681701         0.744115         0.525598
 C        -2.022618         1.673619         1.848831
 C        -0.582351         2.371011         1.602773
 O        -2.948981         2.318977         2.681584
 C        -2.261942         1.708291         3.823086
 C        -1.646913         0.572983         2.865502
 C        -0.185473         0.200390         2.431974
 H         1.477403         1.421646         0.426279
 H        -1.859884         1.226691        -0.443169
 H        -2.005205        -0.304894         0.387496
 H        -0.521734         2.955521         0.716337
 H         0.011292         2.692879         2.493110
 H        -1.552850         2.399366         4.168038
 H        -2.923432         1.438371         4.580603
 H        -2.295565        -0.287065         2.841587
 H         0.647504         0.550419         3.066485
 H        -0.168076        -0.851793         2.341751
