19
Iteration:  2589charge 0 multiplicity 1
 O         0.824396         0.909381         0.085974
 C        -0.219052         1.016950         1.026999
 C        -1.711840         0.913148         0.476940
 C        -1.949491         1.527253         1.884073
 C        -0.666142         2.331641         1.520716
 O        -2.983157         2.224565         2.662269
 C        -2.201108         1.755533         3.803454
 C        -1.651607         0.571370         2.964401
 C        -0.209628         0.185539         2.617240
 H         0.511300         0.584247        -0.767889
 H        -1.750503         1.656019        -0.349189
 H        -2.157867        -0.009076         0.170746
 H        -0.918730         2.983625         0.696507
 H        -0.015506         2.980193         2.115409
 H        -1.379355         2.310133         4.071321
 H        -2.829204         1.654167         4.732097
 H        -2.228216        -0.394682         2.908060
 H         0.557985         0.599705         3.205046
 H        -0.004663        -0.903851         2.525315
