19
Iteration:  3719charge 0 multiplicity 1
 O         0.843891         0.733495         0.258480
 C        -0.223366         1.020702         1.115397
 C        -1.817809         0.819590         0.523182
 C        -2.021475         1.680247         1.728705
 C        -0.663428         2.429123         1.568273
 O        -2.993197         2.202743         2.692497
 C        -2.172830         1.675675         3.788453
 C        -1.582619         0.640297         2.857602
 C        -0.143127         0.245210         2.439194
 H         1.037117         1.335781        -0.485957
 H        -1.879721         1.339887        -0.397275
 H        -2.458451        -0.078560         0.329121
 H        -0.560422         3.135379         0.720210
 H        -0.398452         2.858114         2.455179
 H        -1.419331         2.416857         4.171188
 H        -2.832135         1.304926         4.586525
 H        -2.299922        -0.166040         2.759602
 H         0.612551         0.744003         2.991696
 H         0.022039        -0.786938         2.212361
