19
Iteration:  4158
 O         0.878071         0.638171         0.163376
 C        -0.241369         1.007870         1.076292
 C        -1.704200         0.853179         0.567355
 C        -1.965770         1.685453         1.807516
 C        -0.685939         2.423517         1.490283
 O        -3.008034         2.263373         2.709842
 C        -2.235340         1.591965         3.867393
 C        -1.602331         0.649117         2.876666
 C        -0.172840         0.344333         2.432376
 H         1.004140         1.366061        -0.408507
 H        -1.898298         1.433303        -0.419621
 H        -2.268530        -0.066830         0.352188
 H        -0.975754         3.130876         0.703802
 H        -0.173724         3.037998         2.281366
 H        -1.651316         2.389047         4.312566
 H        -3.136735         1.055797         4.373701
 H        -2.145380        -0.342515         2.865994
 H         0.559491         0.895194         3.045154
 H         0.001374        -0.776121         2.313556
