19
Iteration:  4531
 O         0.884676         0.708063         0.213729
 C        -0.216454         1.108552         1.069828
 C        -1.712353         0.843712         0.475113
 C        -2.012840         1.622399         1.881682
 C        -0.758778         2.381890         1.539932
 O        -3.003606         2.235693         2.692024
 C        -2.178240         1.672595         3.825199
 C        -1.625472         0.592283         2.917290
 C        -0.155357         0.278549         2.364099
 H         1.078804         1.381526        -0.415343
 H        -1.851648         1.365810        -0.499580
 H        -2.187611        -0.031651         0.270615
 H        -0.986163         3.115209         0.660529
 H        -0.255601         2.942794         2.451131
 H        -1.366125         2.259991         4.159397
 H        -2.864414         1.533893         4.758227
 H        -2.329598        -0.219870         2.841698
 H         0.685046         0.548164         3.067302
 H        -0.166431        -0.782298         2.142891
