19
Iteration:  4471
 O         0.846969         0.733317         0.122374
 C        -0.211490         1.032304         1.028985
 C        -1.671772         0.800233         0.554576
 C        -1.929037         1.700099         1.897524
 C        -0.628294         2.509030         1.541216
 O        -3.003456         2.203391         2.665573
 C        -2.362080         1.622431         3.863922
 C        -1.582258         0.684048         2.903596
 C        -0.182870         0.209704         2.415373
 H         0.585465         1.139693        -0.765664
 H        -1.847965         1.481317        -0.318615
 H        -2.027026        -0.339652         0.755789
 H        -0.800729         3.152282         0.638706
 H        -0.020506         3.048619         2.242382
 H        -1.789251         2.388778         4.562010
 H        -3.110527         1.184175         4.533110
 H        -2.254352        -0.190305         2.660535
 H         0.616970         0.598860         3.047491
 H        -0.092275        -0.927919         2.377604
