19
Iteration:  4381
 O         0.817769         0.739770         0.171092
 C        -0.217788         0.990708         1.047131
 C        -1.680903         0.867155         0.513653
 C        -1.936778         1.630014         1.819338
 C        -0.753461         2.510162         1.641985
 O        -3.032492         2.172380         2.620018
 C        -2.242977         1.759254         3.812721
 C        -1.501585         0.643948         2.955589
 C        -0.201920         0.169192         2.400750
 H         0.825514         1.415055        -0.488133
 H        -1.831698         1.456000        -0.366157
 H        -2.095597        -0.193778         0.582162
 H        -0.880077         3.179224         0.937204
 H        -0.029021         2.785102         2.431583
 H        -1.511397         2.587121         4.132001
 H        -3.002614         1.452018         4.586320
 H        -2.125211        -0.231535         2.986781
 H         0.768067         0.158791         2.875423
 H        -0.319735        -0.832289         2.173059
