19
Iteration:  2624
 O         0.764960         0.699654         0.255678
 C        -0.283033         1.057760         0.989089
 C        -1.793742         0.764364         0.556691
 C        -1.970108         1.687454         1.797845
 C        -0.621228         2.428789         1.554472
 O        -3.015854         2.195253         2.709369
 C        -2.269552         1.665690         3.846766
 C        -1.472046         0.718588         2.863559
 C        -0.097187         0.309368         2.344197
 H         1.134458         1.455664        -0.173052
 H        -1.855077         1.189049        -0.525829
 H        -2.092501        -0.307106         0.619333
 H        -0.727512         3.236923         0.828476
 H        -0.169218         2.624245         2.487475
 H        -1.630131         2.405993         4.317761
 H        -2.994699         1.200041         4.520363
 H        -2.165924        -0.186444         2.810164
 H         0.807508         0.450310         2.869648
 H        -0.274335        -0.753044         2.177497
