19
Iteration:  3214
 O         0.934306         0.799255         0.188384
 C        -0.257259         0.979706         1.010710
 C        -1.738014         0.841868         0.451512
 C        -2.017091         1.647206         1.808683
 C        -0.549186         2.350257         1.546949
 O        -3.009334         2.214795         2.761225
 C        -2.253181         1.683972         3.849080
 C        -1.682619         0.612738         2.927626
 C        -0.236073         0.290735         2.374819
 H         0.765818         1.445112        -0.467121
 H        -1.916674         1.374272        -0.552852
 H        -2.098492        -0.168165         0.621533
 H        -0.666676         3.004444         0.720697
 H        -0.106151         2.867648         2.412161
 H        -1.571517         2.517110         4.077582
 H        -2.775168         1.418926         4.834477
 H        -2.193151        -0.328769         2.969308
 H         0.473256         0.740907         2.992162
 H         0.029089        -0.759621         2.369227
