19
Iteration:  1315charge 0 multiplicity 1
 O         0.790919         0.791874         0.132298
 C        -0.275745         1.031774         1.063483
 C        -1.718972         0.806256         0.505058
 C        -2.012276         1.607628         1.854465
 C        -0.657915         2.369125         1.590034
 O        -2.966217         2.381618         2.655121
 C        -2.259519         1.685686         3.880697
 C        -1.637542         0.582835         2.847997
 C        -0.145433         0.199277         2.386567
 H         1.556635         1.307355         0.424017
 H        -1.885461         1.133570        -0.525861
 H        -1.872576        -0.260248         0.683788
 H        -0.548230         3.105397         0.848310
 H        -0.068218         2.765951         2.422703
 H        -1.555576         2.418769         4.249075
 H        -2.899738         1.261480         4.586385
 H        -2.282284        -0.281753         2.946849
 H         0.788646         0.467163         2.851841
 H        -0.011308        -0.860290         2.170830
