19
Iteration:   112
 O         0.837486         0.609256         0.208492
 C        -0.183185         1.045685         1.064727
 C        -1.779909         1.121821         0.468765
 C        -1.949139         1.739255         1.893186
 C        -0.362648         2.400481         1.704522
 O        -2.943822         2.317771         2.602643
 C        -2.377565         1.540866         3.799955
 C        -1.792299         0.555399         2.796852
 C        -0.293640         0.170609         2.425744
 H         1.596793         1.318119         0.155110
 H        -1.657099         1.842216        -0.342779
 H        -2.342243         0.199460         0.208119
 H        -0.273052         3.240982         1.137450
 H         0.238025         2.494450         2.705907
 H        -1.519060         2.020014         4.244976
 H        -3.251828         1.223659         4.366182
 H        -2.478959        -0.299682         2.507896
 H         0.523002         0.341881         3.028077
 H        -0.339162        -0.885415         1.967286
