19
Iteration:  2450charge 0 multiplicity 1
 O         0.876470         0.922405         0.133921
 C        -0.209019         0.934200         1.029098
 C        -1.655394         0.925080         0.367249
 C        -1.935255         1.689244         1.885044
 C        -0.636821         2.415640         1.473166
 O        -3.025186         2.207672         2.755694
 C        -2.329076         1.689201         3.958261
 C        -1.655063         0.651929         2.978488
 C        -0.207052         0.083227         2.421213
 H         0.902985         0.110265        -0.478812
 H        -1.428326         1.642196        -0.517354
 H        -2.118529        -0.026511         0.051092
 H        -0.751337         3.084164         0.621741
 H        -0.018874         3.022257         2.057610
 H        -1.633615         2.458120         4.426499
 H        -2.931777         1.253388         4.802028
 H        -2.412066        -0.133748         3.112990
 H         0.737197         0.073725         2.912159
 H        -0.495704        -0.999698         2.235852
