19
Iteration:   570charge 0 multiplicity 1
 O         0.798009         0.732746         0.248583
 C        -0.170024         0.934038         1.123834
 C        -1.827165         1.025341         0.440246
 C        -1.933357         1.813603         1.808409
 C        -0.509299         2.374087         1.477196
 O        -2.981679         2.283199         2.674579
 C        -2.261482         1.590580         3.802045
 C        -1.729256         0.557635         2.866974
 C        -0.205006         0.113238         2.485058
 H         1.593339         1.373873         0.344399
 H        -1.627191         1.439549        -0.530403
 H        -2.563916         0.264890         0.413153
 H        -0.615294         3.107190         0.759364
 H         0.087463         2.873289         2.408532
 H        -1.492444         2.287289         4.104728
 H        -3.046340         1.387717         4.549518
 H        -2.406606        -0.224580         2.561479
 H         0.504912         0.509571         3.137396
 H         0.065135        -0.961288         2.239104
