19
Iteration:  2711charge 0 multiplicity 1
 O         0.783555         0.782504         0.009753
 C        -0.200544         1.032600         1.018444
 C        -1.772164         0.828668         0.553702
 C        -1.966642         1.574020         1.880438
 C        -0.652101         2.448217         1.572876
 O        -3.043136         2.186886         2.640475
 C        -2.265066         1.787445         3.826578
 C        -1.532075         0.612446         3.012260
 C        -0.098098         0.211352         2.408965
 H         1.594325         0.759008         0.489738
 H        -1.907337         1.503143        -0.361400
 H        -2.133875        -0.188299         0.658416
 H        -0.906436         3.129261         0.723297
 H        -0.174020         3.028089         2.370518
 H        -1.748232         2.616105         4.232700
 H        -3.045854         1.536552         4.605480
 H        -2.214941        -0.296221         3.002939
 H         0.660987         0.583355         3.055301
 H        -0.194889        -0.901984         2.331255
