19
Iteration:  3808
 O         0.875765         0.712380         0.190674
 C        -0.166876         1.058019         1.037839
 C        -1.782583         0.905998         0.484948
 C        -1.924010         1.638753         1.805814
 C        -0.606607         2.380448         1.494108
 O        -2.985417         2.208548         2.731543
 C        -2.295993         1.656591         3.840488
 C        -1.654562         0.595449         2.885007
 C        -0.174197         0.298184         2.529881
 H         0.621916         1.173523        -0.663942
 H        -1.932072         1.406614        -0.430300
 H        -2.453554        -0.049059         0.502976
 H        -0.885592         3.010209         0.639808
 H        -0.033141         2.996744         2.156033
 H        -1.522409         2.396419         4.283941
 H        -3.053512         1.251924         4.497256
 H        -2.324414        -0.252972         2.659200
 H         0.489361         0.888144         3.156960
 H         0.050991        -0.744378         2.314698
