19
Iteration:    72charge 0 multiplicity 1
 O         1.002399         0.741986         0.287785
 C        -0.204525         0.935451         1.092379
 C        -1.748427         1.074171         0.418658
 C        -1.950768         1.765190         1.751263
 C        -0.579733         2.410305         1.709466
 O        -2.867457         2.455436         2.689382
 C        -2.373368         1.528802         3.827653
 C        -1.748999         0.565253         2.817903
 C        -0.310612         0.003054         2.354736
 H         0.630633         0.760178        -0.571193
 H        -1.517226         1.804425        -0.400930
 H        -2.318228         0.138184         0.239201
 H        -0.516053         3.292958         0.948515
 H        -0.087391         2.573683         2.651231
 H        -1.688307         2.089571         4.524762
 H        -3.241562         1.341807         4.520068
 H        -2.490661        -0.198000         2.471755
 H         0.530705        -0.088943         3.122238
 H        -0.513750        -1.032072         2.002150
