19
Iteration:  2961charge 0 multiplicity 1
 O         0.811765         0.665105         0.256540
 C        -0.260462         1.009712         1.042358
 C        -1.770725         0.921442         0.507638
 C        -1.969319         1.640784         1.828190
 C        -0.641871         2.474668         1.597364
 O        -3.002460         2.167997         2.661401
 C        -2.245319         1.673310         3.846612
 C        -1.593240         0.570704         2.872878
 C        -0.133602         0.367386         2.369711
 H         0.880570         1.217831        -0.567695
 H        -1.808404         1.267657        -0.541658
 H        -2.260357        -0.020080         0.484406
 H        -0.787987         3.201109         0.744708
 H        -0.096321         2.792372         2.505553
 H        -1.478427         2.363261         4.087639
 H        -2.929567         1.515158         4.732161
 H        -2.103235        -0.415920         2.691059
 H         0.639177         0.740905         3.017162
 H         0.304251        -0.675354         2.190037
