19
Iteration:   599charge 0 multiplicity 1
 O         0.781776         0.570679         0.179355
 C        -0.205216         1.019676         0.957135
 C        -1.662052         1.011055         0.431306
 C        -1.922787         1.690457         1.865158
 C        -0.549706         2.413531         1.672679
 O        -2.956999         2.281442         2.618653
 C        -2.337207         1.597551         3.848766
 C        -1.662045         0.646196         2.897795
 C        -0.256118         0.243831         2.439711
 H         1.524780         1.205463         0.152030
 H        -1.858705         1.709580        -0.450199
 H        -2.273714         0.046559         0.270362
 H        -0.892290         3.406840         1.147944
 H         0.032997         2.650608         2.605435
 H        -1.680737         2.336068         4.400709
 H        -3.156367         1.169027         4.490698
 H        -2.409324        -0.192179         2.692423
 H         0.668394         0.603416         3.018426
 H        -0.072170        -0.824820         2.349726
