19
Iteration:  1652charge 0 multiplicity 1
 O         0.874739         0.994399         0.253756
 C        -0.340578         0.975367         1.072674
 C        -1.827063         0.807893         0.587026
 C        -1.999919         1.684797         1.789436
 C        -0.658983         2.352849         1.463006
 O        -2.904035         2.290405         2.719178
 C        -2.194540         1.587641         3.855393
 C        -1.568605         0.637373         2.821761
 C        -0.227625         0.180055         2.378094
 H         1.172504         0.110036         0.130548
 H        -1.727790         1.275341        -0.485962
 H        -2.161144        -0.289300         0.442066
 H        -0.769989         2.956399         0.561199
 H        -0.028324         2.894801         2.186599
 H        -1.541597         2.449621         4.218758
 H        -2.902031         1.211560         4.637164
 H        -2.300434        -0.232007         2.788219
 H         0.590766         0.543288         3.018870
 H        -0.117913        -0.954715         2.133175
