19
Iteration:    95
 O         0.848099         0.703541         0.271361
 C        -0.246452         0.965420         1.079613
 C        -1.621096         1.074230         0.464364
 C        -1.868832         1.757302         1.819962
 C        -0.410282         2.374806         1.682133
 O        -2.938782         2.411319         2.642884
 C        -2.357739         1.504372         3.854397
 C        -1.767766         0.555493         2.746042
 C        -0.408423         0.070078         2.375400
 H         0.863404         1.539825        -0.272073
 H        -1.613391         1.777653        -0.398093
 H        -2.200376         0.146888         0.392943
 H        -0.474189         3.126261         0.775222
 H         0.171832         2.759575         2.490744
 H        -1.708424         2.173228         4.469724
 H        -3.100908         1.030416         4.554519
 H        -2.476815        -0.238901         2.493842
 H         0.369813         0.425554         3.169027
 H        -0.271675        -0.980235         2.236674
