19
Iteration:  3696
 O         0.901988         0.738212         0.255960
 C        -0.269322         1.000412         1.013466
 C        -1.748953         0.850802         0.562393
 C        -2.003021         1.640421         1.842075
 C        -0.627458         2.463631         1.488342
 O        -2.959272         2.276795         2.670054
 C        -2.278911         1.631730         3.853298
 C        -1.574831         0.585849         2.898348
 C        -0.195991         0.261383         2.414558
 H         0.873471         1.213894        -0.627782
 H        -1.965663         1.334521        -0.404474
 H        -2.142765        -0.170971         0.424161
 H        -1.144118         3.071150         0.724830
 H        -0.007033         3.037474         2.117071
 H        -1.644168         2.426136         4.316851
 H        -3.059413         1.195841         4.576811
 H        -2.220716        -0.293253         2.868439
 H         0.630258         0.678789         2.957977
 H        -0.077497        -0.727517         2.169241
