19
Iteration:  1899charge 0 multiplicity 1
 O         0.836245         0.904702         0.144104
 C        -0.211493         0.972751         1.064629
 C        -1.804878         0.835288         0.523445
 C        -1.946502         1.715045         1.801871
 C        -0.708952         2.410681         1.478454
 O        -2.882881         2.333583         2.734343
 C        -2.328284         1.492346         3.905558
 C        -1.617782         0.585307         2.818478
 C        -0.117259         0.288638         2.436085
 H         0.975960        -0.012178         0.001091
 H        -1.836019         1.384714        -0.419419
 H        -2.211795        -0.117043         0.445286
 H        -0.587432         3.116469         0.619599
 H        -0.235202         2.802132         2.449883
 H        -2.002197         2.285709         4.610347
 H        -3.069899         0.836647         4.436631
 H        -2.186470        -0.308210         2.655646
 H         0.717303         0.602813         3.147379
 H        -0.054022        -0.770376         2.455564
