19
Iteration:  1678charge 0 multiplicity 1
 O         0.967053         0.982451         0.142901
 C        -0.229599         0.976179         1.009145
 C        -1.914277         0.811954         0.433473
 C        -1.929265         1.570545         1.861121
 C        -0.664627         2.370297         1.499956
 O        -2.919299         2.322858         2.728655
 C        -2.311406         1.660077         3.855335
 C        -1.616069         0.570816         2.961079
 C        -0.179214         0.158718         2.474890
 H         1.066049         0.149895        -0.279921
 H        -2.098749         1.576837        -0.291928
 H        -2.303073        -0.156523         0.104702
 H        -0.972250         3.169688         0.717877
 H        -0.059197         2.881494         2.288686
 H        -1.490047         2.384822         4.226211
 H        -3.065999         1.451057         4.647355
 H        -2.325953        -0.274783         2.853774
 H         0.578579         0.637252         3.074417
 H        -0.014923        -0.900537         2.378059
