19
Iteration:   274charge 0 multiplicity 1
 O         0.872017         0.664514         0.143407
 C        -0.217030         0.896027         1.002064
 C        -1.707561         1.125665         0.460246
 C        -1.922391         1.754208         1.884759
 C        -0.485057         2.347669         1.685535
 O        -2.984061         2.349348         2.658578
 C        -2.421807         1.567396         3.772000
 C        -1.673536         0.583130         2.849613
 C        -0.263997         0.159857         2.493232
 H         1.405951         1.443446         0.165980
 H        -1.761353         1.883726        -0.320481
 H        -2.352489         0.279398         0.150341
 H        -0.638237         3.055797         0.937511
 H         0.260008         2.541651         2.560045
 H        -1.760277         2.275817         4.309616
 H        -3.183421         1.109817         4.430489
 H        -2.336388        -0.284708         2.682818
 H         0.692378         0.457514         2.994219
 H        -0.299280        -0.974939         2.288015
