19
Iteration:  2364
 O         0.903946         0.856810         0.059074
 C        -0.187600         0.990188         0.924118
 C        -1.611521         0.850258         0.385048
 C        -1.940769         1.730973         1.918808
 C        -0.550590         2.361462         1.551298
 O        -3.131930         2.280089         2.850170
 C        -2.376667         1.600394         3.951820
 C        -1.705897         0.695690         2.902275
 C        -0.181246         0.188684         2.373464
 H         0.848033        -0.072387        -0.294876
 H        -2.010434         1.376974        -0.488787
 H        -1.948459        -0.136652         0.299272
 H        -0.370598         3.237379         0.826656
 H         0.151045         2.576393         2.484471
 H        -1.796564         2.386283         4.447394
 H        -2.945100         1.042619         4.675416
 H        -2.323236        -0.182532         2.862357
 H         0.573019         0.750361         2.949263
 H         0.056001        -0.949669         2.410459
