19
Iteration:  2073
 O         0.800098         0.790636         0.171130
 C        -0.270040         1.079063         0.988495
 C        -1.802026         0.968410         0.449000
 C        -1.943486         1.613250         1.867545
 C        -0.623074         2.424147         1.593886
 O        -3.029106         2.178152         2.683000
 C        -2.253857         1.616454         3.839617
 C        -1.549770         0.605417         2.956781
 C        -0.135549         0.280695         2.380736
 H         1.031459        -0.137124         0.399706
 H        -1.678018         1.840974        -0.269531
 H        -2.177844        -0.029001        -0.023662
 H        -0.787006         3.245823         0.877074
 H        -0.022719         2.645967         2.439582
 H        -1.583437         2.342481         4.317556
 H        -2.957733         1.137586         4.487270
 H        -2.083666        -0.327992         2.830815
 H         0.829475         0.761172         2.848592
 H        -0.040382        -0.805814         2.314128
