19
Iteration:  4208
 O         0.917923         0.776130         0.236417
 C        -0.274033         0.988336         1.036090
 C        -1.753940         0.878745         0.479105
 C        -1.982330         1.583632         1.867514
 C        -0.752008         2.392848         1.545356
 O        -3.014684         2.266577         2.635973
 C        -2.223845         1.733291         3.897821
 C        -1.600814         0.649285         2.927089
 C        -0.134279         0.146176         2.373075
 H         0.953651         1.280158        -0.663039
 H        -1.823446         1.471651        -0.379552
 H        -2.034362        -0.207226         0.239307
 H        -0.888200         3.092409         0.645458
 H        -0.079753         2.987462         2.257691
 H        -1.588918         2.580545         4.308682
 H        -2.846871         1.437401         4.787676
 H        -2.192783        -0.239595         2.958229
 H         0.772881         0.569728         2.887332
 H        -0.131954        -0.908397         2.294203
