19
Iteration:  4551charge 0 multiplicity 1
 O         0.927488         0.807623         0.238730
 C        -0.275843         0.978548         1.032077
 C        -1.733800         0.773017         0.533803
 C        -1.940850         1.648380         1.763849
 C        -0.690852         2.481356         1.425263
 O        -3.002063         2.276306         2.802158
 C        -2.229926         1.661042         3.893496
 C        -1.624263         0.660593         2.861275
 C        -0.225840         0.160512         2.372604
 H         0.945344         1.695358        -0.295162
 H        -1.865148         1.129760        -0.605037
 H        -2.126493        -0.266583         0.551836
 H        -0.845739         3.196805         0.493896
 H        -0.217303         2.979778         2.296979
 H        -1.557439         2.389069         4.328758
 H        -2.789098         0.990939         4.491672
 H        -2.283896        -0.245721         2.890761
 H         0.568801         0.587834         3.068997
 H        -0.039448        -0.941788         2.342398
