19
Iteration:  3874
 O         0.873708         0.782406         0.150356
 C        -0.238086         0.936647         1.048266
 C        -1.716409         0.859551         0.556235
 C        -1.883909         1.715252         1.870071
 C        -0.638361         2.397713         1.500395
 O        -3.048487         2.185109         2.607024
 C        -2.282258         1.706366         3.890027
 C        -1.649076         0.589611         2.962213
 C        -0.151800         0.229873         2.412516
 H         0.939544         1.537142        -0.464079
 H        -1.645982         1.509209        -0.309188
 H        -2.526971        -0.007031         0.511428
 H        -0.912604         3.122846         0.703970
 H         0.063273         2.832952         2.262965
 H        -1.449848         2.557584         4.147604
 H        -3.113413         1.435739         4.597571
 H        -2.382789        -0.266422         3.010419
 H         0.568282         0.676443         3.099393
 H        -0.083497        -0.887889         2.246976
