19
Iteration:   982
 O         0.850171         0.798331         0.185963
 C        -0.316726         0.935553         1.026273
 C        -1.818749         0.945603         0.504752
 C        -1.899265         1.616225         1.840639
 C        -0.532201         2.347881         1.734537
 O        -2.883310         2.337925         2.574224
 C        -2.337728         1.710268         3.845341
 C        -1.654893         0.551633         2.925341
 C        -0.145559         0.155588         2.330952
 H         0.814364         1.559540        -0.410080
 H        -1.942508         1.586896        -0.405380
 H        -2.343110        -0.039931         0.299069
 H        -0.804666         3.224435         1.007999
 H        -0.201682         2.528460         2.657278
 H        -1.703695         2.514795         4.378330
 H        -3.014941         1.230472         4.625255
 H        -2.280238        -0.409717         2.990929
 H         0.632065         0.611658         2.932132
 H        -0.217421        -0.921846         2.066952
