19
Iteration:  3117
 O         0.775494         0.830293         0.221037
 C        -0.227651         0.996596         1.089269
 C        -1.738244         0.861982         0.569330
 C        -1.915500         1.588462         1.841944
 C        -0.673808         2.387482         1.503168
 O        -2.958342         2.285527         2.634465
 C        -2.250563         1.618514         3.823939
 C        -1.601676         0.581556         2.906576
 C        -0.160432         0.253344         2.392570
 H         0.529864         1.214926        -0.585176
 H        -1.771290         1.549666        -0.388134
 H        -2.125504        -0.174256         0.421527
 H        -0.706544         3.160020         0.711753
 H        -0.107188         2.888006         2.386523
 H        -1.647002         2.424642         4.177366
 H        -2.942238         1.286926         4.612733
 H        -2.211389        -0.356824         2.675717
 H         0.661206         0.725885         3.124316
 H        -0.000829        -0.809943         2.458535
