19
Iteration:  1719
 O         0.739796         0.821981         0.105410
 C        -0.255992         1.073448         1.063670
 C        -1.724283         0.929958         0.565848
 C        -1.960370         1.704950         1.835976
 C        -0.588226         2.510753         1.592059
 O        -3.048200         2.138155         2.669930
 C        -2.305427         1.633702         3.794154
 C        -1.548655         0.625477         2.854181
 C        -0.098654         0.163646         2.496088
 H         0.741170        -0.181247         0.050771
 H        -1.522045         1.507391        -0.443496
 H        -2.145216        -0.173292         0.503305
 H        -0.531694         3.229624         0.708221
 H        -0.068094         2.950541         2.457252
 H        -1.617991         2.527663         4.064259
 H        -2.773496         1.267783         4.730339
 H        -2.173285        -0.307358         2.589002
 H         0.802615         0.358565         3.059178
 H        -0.067839        -1.017670         2.252943
