19
Iteration:  2713
 O         0.797782         0.782766         0.008261
 C        -0.197263         1.026371         1.010215
 C        -1.772918         0.846660         0.559489
 C        -1.965990         1.566419         1.902563
 C        -0.633535         2.443273         1.550882
 O        -3.052591         2.180226         2.635372
 C        -2.257654         1.792645         3.845177
 C        -1.542522         0.599226         3.020203
 C        -0.119419         0.213097         2.398470
 H         1.607627         0.796716         0.531299
 H        -1.949701         1.570946        -0.309325
 H        -2.117757        -0.245267         0.622908
 H        -0.943298         3.098309         0.726440
 H        -0.189689         3.033441         2.339004
 H        -1.756702         2.665101         4.203126
 H        -3.025477         1.547653         4.540012
 H        -2.183823        -0.305278         3.001761
 H         0.660701         0.619195         3.034356
 H        -0.216816        -0.826159         2.359670
