19
Iteration:  2935charge 0 multiplicity 1
 O         0.885007         0.757735         0.154829
 C        -0.230242         0.957263         1.029214
 C        -1.686742         0.870823         0.459490
 C        -2.002449         1.561908         1.824766
 C        -0.724196         2.427738         1.553218
 O        -3.017603         2.244164         2.732459
 C        -2.242653         1.717067         3.882543
 C        -1.551559         0.679432         2.913783
 C        -0.213204         0.238059         2.442247
 H         1.015670         1.515144        -0.505679
 H        -1.924722         1.468191        -0.526722
 H        -2.084788        -0.238199         0.058557
 H        -0.729552         3.034463         0.655152
 H        -0.293556         2.889455         2.452199
 H        -1.580843         2.600786         4.287340
 H        -2.862229         1.193638         4.585426
 H        -2.147079        -0.230083         2.894667
 H         0.636177         0.353760         3.127147
 H        -0.156564        -0.828264         2.319141
