19
Iteration:  2571charge 0 multiplicity 1
 O         0.798305         0.964415         0.120197
 C        -0.274460         0.931505         1.017051
 C        -1.789841         0.843288         0.465394
 C        -1.971886         1.577036         1.826170
 C        -0.629216         2.336825         1.575682
 O        -2.934424         2.239436         2.632400
 C        -2.231142         1.735538         3.863356
 C        -1.584447         0.605362         2.991342
 C        -0.159583         0.231157         2.431426
 H         0.980611         0.020332         0.048073
 H        -1.794933         1.552962        -0.459598
 H        -2.225516        -0.177960         0.237936
 H        -0.602933         3.216318         0.905671
 H        -0.188053         2.667716         2.507837
 H        -1.648835         2.633380         4.335603
 H        -2.982898         1.356759         4.564213
 H        -2.298741        -0.241131         3.097963
 H         0.667564         0.675882         3.007787
 H        -0.102591        -0.868141         2.463302
