19
Iteration:   584charge 0 multiplicity 1
 O         0.869901         0.603321         0.136817
 C        -0.224415         0.975897         1.141760
 C        -1.835425         1.095671         0.544760
 C        -1.934240         1.709068         1.815069
 C        -0.566890         2.437222         1.625449
 O        -2.976222         2.287826         2.637414
 C        -2.311943         1.625926         3.754005
 C        -1.644738         0.528196         2.816186
 C        -0.218417         0.197789         2.465901
 H         1.537051         1.238912         0.282794
 H        -1.800165         1.825705        -0.254956
 H        -2.293974         0.172005         0.281082
 H        -0.481831         2.969832         0.696691
 H        -0.027549         2.862824         2.394149
 H        -1.573961         2.253493         4.230916
 H        -2.960631         1.306620         4.541867
 H        -2.369217        -0.277162         2.684489
 H         0.489828         0.658049         3.183126
 H        -0.050981        -0.893269         2.412112
