19
Iteration:  3805charge 0 multiplicity 1
 O         0.872341         0.729270         0.183137
 C        -0.179881         1.037689         1.070951
 C        -1.788822         0.879640         0.480377
 C        -1.950978         1.630439         1.813642
 C        -0.591876         2.399332         1.479353
 O        -2.972643         2.204121         2.733241
 C        -2.310533         1.687037         3.839362
 C        -1.648276         0.587335         2.874814
 C        -0.180889         0.294496         2.514743
 H         0.657959         1.161444        -0.601851
 H        -1.870459         1.411988        -0.484074
 H        -2.438244        -0.033041         0.569533
 H        -0.807498         3.157446         0.594530
 H         0.034222         2.909326         2.220572
 H        -1.530804         2.354321         4.324747
 H        -3.088669         1.203962         4.560158
 H        -2.325717        -0.212925         2.629641
 H         0.581203         0.775655         3.128289
 H         0.150383        -0.640629         2.325495
