19
Iteration:    22charge 0 multiplicity 1
 O         0.869487         0.801717         0.203575
 C        -0.105044         0.916983         1.184355
 C        -1.800463         1.236379         0.405652
 C        -1.964140         1.764582         1.778210
 C        -0.438073         2.316706         1.754937
 O        -3.021944         2.360597         2.636963
 C        -2.234050         1.551679         3.798426
 C        -1.736012         0.597700         2.767758
 C        -0.337725        -0.030347         2.388429
 H         1.451498        -0.003832         0.461629
 H        -1.655219         1.973716        -0.386395
 H        -2.384700         0.383372         0.047967
 H        -0.326649         3.062282         0.904391
 H         0.003573         2.765102         2.644371
 H        -1.639107         2.309482         4.273447
 H        -3.011776         1.110927         4.442868
 H        -2.505558        -0.142229         2.634377
 H         0.376144        -0.028596         3.260009
 H        -0.543916        -1.042620         2.134271
