19
Iteration:   585charge 0 multiplicity 1
 O         0.869007         0.597750         0.136523
 C        -0.232474         0.980503         1.128627
 C        -1.828196         1.089846         0.542238
 C        -1.927932         1.700082         1.824311
 C        -0.563611         2.437640         1.643147
 O        -2.976584         2.288498         2.635419
 C        -2.309863         1.624586         3.756931
 C        -1.643901         0.539133         2.809399
 C        -0.221805         0.200570         2.466227
 H         1.567814         1.232449         0.255317
 H        -1.829009         1.860638        -0.248295
 H        -2.293414         0.138656         0.256113
 H        -0.495231         2.998651         0.673560
 H        -0.059663         2.863986         2.378086
 H        -1.577502         2.277413         4.244503
 H        -2.989698         1.299061         4.529416
 H        -2.347685        -0.308681         2.686496
 H         0.503481         0.680366         3.201700
 H        -0.089311        -0.878634         2.419334
