19
Iteration:  4378charge 0 multiplicity 1
 O         0.842645         0.743526         0.147003
 C        -0.246945         1.001881         1.053375
 C        -1.704297         0.828841         0.492321
 C        -1.956884         1.606836         1.844079
 C        -0.730888         2.495404         1.668634
 O        -3.032844         2.185578         2.606231
 C        -2.234554         1.753586         3.795632
 C        -1.519589         0.655989         2.977255
 C        -0.174907         0.181195         2.393969
 H         0.751339         1.413053        -0.541029
 H        -1.687953         1.494521        -0.405269
 H        -2.098577        -0.100053         0.524080
 H        -0.829964         3.339990         0.964612
 H        -0.001304         2.806309         2.427118
 H        -1.547004         2.581218         4.217075
 H        -3.045072         1.477819         4.673780
 H        -2.115080        -0.248016         3.040763
 H         0.773448         0.189464         2.938668
 H        -0.401788        -0.891192         2.205342
