19
Iteration:  2239charge 0 multiplicity 1
 O         0.779664         0.899834         0.004956
 C        -0.267714         0.976490         0.989935
 C        -1.750401         0.885580         0.466195
 C        -1.991471         1.642857         1.874224
 C        -0.594682         2.422505         1.628026
 O        -2.964186         2.261513         2.646491
 C        -2.257701         1.588699         3.880439
 C        -1.641004         0.564055         2.946051
 C        -0.180192         0.236352         2.504499
 H         1.655274         0.580809         0.405408
 H        -1.831173         1.447697        -0.496708
 H        -2.140331        -0.235507         0.463127
 H        -0.689301         3.217312         0.911205
 H         0.128090         2.613429         2.405987
 H        -1.565921         2.447416         4.221521
 H        -2.920318         1.117896         4.690246
 H        -2.324983        -0.305427         2.740513
 H         0.614811         0.781269         3.107028
 H         0.153353        -0.819337         2.448655
