19
Iteration:  4323
 O         0.838461         0.714688         0.259190
 C        -0.192645         1.059392         1.114620
 C        -1.795257         0.865089         0.553815
 C        -1.951706         1.658742         1.765276
 C        -0.676312         2.458262         1.433293
 O        -2.978187         2.260223         2.682676
 C        -2.229679         1.571344         3.865056
 C        -1.564142         0.649105         2.824790
 C        -0.159416         0.258730         2.452309
 H         0.603500         1.214209        -0.604886
 H        -2.079655         1.367839        -0.447464
 H        -2.175737        -0.103415         0.534892
 H        -0.638619         3.039977         0.532579
 H        -0.197942         2.995568         2.228661
 H        -1.631747         2.300778         4.516149
 H        -3.037583         1.007223         4.603399
 H        -2.244229        -0.215531         2.766437
 H         0.562589         0.629108         3.180422
 H        -0.150684        -0.863221         2.315880
