19
Iteration:  2610charge 0 multiplicity 1
 O         0.833398         0.766728         0.119178
 C        -0.226912         0.992004         1.123441
 C        -1.724079         0.790947         0.589937
 C        -1.977781         1.673396         1.808509
 C        -0.667388         2.478940         1.578139
 O        -3.018812         2.193324         2.660865
 C        -2.175222         1.683473         3.818570
 C        -1.628472         0.645618         2.876542
 C        -0.185029         0.225947         2.420931
 H         0.689388         1.375488        -0.679941
 H        -1.950124         1.215776        -0.351638
 H        -2.186147        -0.154779         0.649914
 H        -0.630409         3.206756         0.745586
 H        -0.085659         2.866339         2.448186
 H        -1.522782         2.446654         4.098813
 H        -2.753768         1.392480         4.735523
 H        -2.359469        -0.197825         2.789714
 H         0.601746         0.653345         3.023827
 H         0.119738        -0.834334         2.269197
