19
Iteration:  4554
 O         0.921184         0.833708         0.246932
 C        -0.286386         0.978082         1.037442
 C        -1.746229         0.752754         0.512938
 C        -1.915858         1.679156         1.780294
 C        -0.681758         2.454438         1.394131
 O        -2.997402         2.263399         2.792350
 C        -2.221850         1.656275         3.874369
 C        -1.622920         0.669207         2.872772
 C        -0.217401         0.157991         2.373053
 H         0.930747         1.674328        -0.267417
 H        -1.841205         1.002869        -0.535724
 H        -2.239612        -0.152375         0.553086
 H        -0.807121         3.142318         0.497547
 H        -0.186613         2.963855         2.366892
 H        -1.612495         2.272017         4.527532
 H        -2.840904         0.968462         4.635361
 H        -2.353765        -0.122275         2.864526
 H         0.531902         0.653157         3.051791
 H        -0.110523        -0.910848         2.342290
