19
Iteration:    71
 O         1.004529         0.741861         0.290397
 C        -0.206435         0.946886         1.090732
 C        -1.749285         1.075103         0.419681
 C        -1.953756         1.756538         1.748543
 C        -0.572964         2.410223         1.704138
 O        -2.870805         2.464257         2.680755
 C        -2.370162         1.524265         3.839321
 C        -1.747968         0.561680         2.819931
 C        -0.312835         0.008279         2.356375
 H         0.626928         0.723411        -0.556651
 H        -1.527909         1.802311        -0.402612
 H        -2.327638         0.141195         0.242384
 H        -0.513829         3.264397         0.992607
 H        -0.077116         2.555289         2.663599
 H        -1.674526         2.097384         4.514258
 H        -3.233164         1.310976         4.524858
 H        -2.469704        -0.242479         2.487968
 H         0.498407        -0.083489         3.092055
 H        -0.530046        -1.034169         1.965429
