19
Iteration:  4213charge 0 multiplicity 1
 O         0.931967         0.772033         0.197098
 C        -0.275944         1.012743         1.030975
 C        -1.723592         0.812392         0.464252
 C        -2.011121         1.588342         1.852219
 C        -0.716662         2.425749         1.552069
 O        -3.014369         2.273607         2.661857
 C        -2.259967         1.751096         3.895266
 C        -1.594467         0.639433         2.940170
 C        -0.127335         0.139599         2.377976
 H         0.853212         1.292275        -0.587245
 H        -1.905495         1.646698        -0.322864
 H        -1.936413        -0.213849         0.259001
 H        -0.909119         3.088430         0.741014
 H        -0.205783         2.927611         2.350253
 H        -1.616520         2.538718         4.304404
 H        -2.920417         1.633448         4.851527
 H        -2.246258        -0.281474         2.982563
 H         0.814817         0.427272         2.862165
 H        -0.160631        -1.006275         2.264841
