19
Iteration:   855charge 0 multiplicity 1
 O         0.818619         0.776470         0.108190
 C        -0.170155         1.030938         1.115033
 C        -1.679078         0.906677         0.501895
 C        -1.957626         1.685592         1.799633
 C        -0.605409         2.414314         1.662682
 O        -2.972250         2.332295         2.650992
 C        -2.234581         1.682667         3.900351
 C        -1.710604         0.607410         2.819870
 C        -0.257586         0.018926         2.379055
 H         1.306124         1.591008        -0.093851
 H        -1.738137         1.284951        -0.533482
 H        -2.022161        -0.130636         0.630463
 H        -0.680128         3.099791         1.000049
 H        -0.092041         2.850281         2.584484
 H        -1.613360         2.514438         4.366547
 H        -2.936300         1.280651         4.665271
 H        -2.610639         0.001286         2.682426
 H         0.602595        -0.080935         3.040487
 H        -0.438589        -1.087946         2.165378
