19
Iteration:  3863charge 0 multiplicity 1
 O         0.902330         0.703434         0.159448
 C        -0.227623         1.021481         1.032254
 C        -1.756080         0.891167         0.574618
 C        -1.994904         1.627554         1.843156
 C        -0.591757         2.475574         1.528099
 O        -3.062683         2.193174         2.613445
 C        -2.241132         1.650279         3.838463
 C        -1.583504         0.663204         2.938669
 C        -0.205840         0.236718         2.456214
 H         0.807815         1.472740        -0.522642
 H        -2.035591         1.435036        -0.320336
 H        -2.219404        -0.207433         0.489149
 H        -0.652680         3.227622         0.719856
 H         0.081019         2.848335         2.336087
 H        -1.670351         2.525383         4.398967
 H        -2.957502         1.305149         4.642256
 H        -2.321937        -0.178190         2.821508
 H         0.701735         0.516857         2.995168
 H        -0.018260        -0.869995         2.337412
