19
Iteration:  1783charge 0 multiplicity 1
 O         0.868468         0.973308         0.182778
 C        -0.228827         1.047979         1.083920
 C        -1.850209         0.806723         0.558899
 C        -2.017792         1.596996         1.808061
 C        -0.683448         2.447250         1.480130
 O        -2.831991         2.330910         2.671992
 C        -2.246901         1.524392         3.886728
 C        -1.612862         0.589678         2.782458
 C        -0.183129         0.195951         2.448347
 H         0.974526         0.031219         0.184344
 H        -1.684078         1.448868        -0.371696
 H        -2.475014        -0.154009         0.554846
 H        -0.807179         3.028628         0.581519
 H        -0.235645         2.876513         2.338856
 H        -1.669182         2.252100         4.344912
 H        -2.952852         1.087070         4.623155
 H        -2.421859        -0.198352         2.773826
 H         0.679531         0.476901         3.029888
 H        -0.168471        -0.989419         2.479597
