19
Iteration:  3483
 O         0.834094         0.695014         0.172551
 C        -0.238936         1.048780         1.043880
 C        -1.696047         0.899322         0.539555
 C        -1.980277         1.654292         1.816466
 C        -0.582217         2.415232         1.497534
 O        -3.020661         2.217653         2.663143
 C        -2.234761         1.611328         3.908180
 C        -1.599533         0.656366         2.883712
 C        -0.185354         0.296317         2.477361
 H         0.631793         1.094997        -0.757470
 H        -1.702079         1.466180        -0.409468
 H        -2.158617        -0.058716         0.201466
 H        -0.904676         3.197797         0.841588
 H        -0.249084         2.823321         2.470010
 H        -1.827988         2.486292         4.501286
 H        -3.008234         0.983861         4.466288
 H        -2.205321        -0.252606         2.834143
 H         0.693286         0.600798         2.971071
 H        -0.135668        -0.707922         2.315312
