19
Iteration:  3912
 O         0.866971         0.784560         0.216982
 C        -0.226058         0.992536         1.018556
 C        -1.802952         0.768547         0.516256
 C        -1.969667         1.628355         1.843380
 C        -0.709943         2.375327         1.608985
 O        -2.967556         2.298216         2.601660
 C        -2.202122         1.693728         3.838797
 C        -1.582867         0.620928         2.895942
 C        -0.205883         0.290050         2.398776
 H         1.020599         1.519533        -0.326190
 H        -1.635842         1.132063        -0.546379
 H        -2.301620        -0.134311         0.532857
 H        -0.840403         3.227048         0.941643
 H        -0.326565         2.743985         2.522830
 H        -1.592835         2.351517         4.304880
 H        -2.754347         1.298087         4.671737
 H        -2.214636        -0.270835         2.843718
 H         0.701839         0.437956         3.063504
 H        -0.114515        -0.843061         2.244411
