19
Iteration:  4256
 O         0.776470         0.813520         0.210632
 C        -0.222093         0.908622         1.092061
 C        -1.805401         0.870943         0.543311
 C        -1.911679         1.686638         1.845201
 C        -0.621415         2.423727         1.529993
 O        -3.052206         2.204203         2.583457
 C        -2.229410         1.673712         3.779263
 C        -1.543716         0.622398         2.919265
 C        -0.113585         0.192918         2.477999
 H         0.679029         1.457558        -0.437331
 H        -2.003498         1.517273        -0.398191
 H        -2.421481        -0.032488         0.527255
 H        -0.490982         3.205446         0.781185
 H        -0.154059         2.827938         2.351626
 H        -1.471771         2.399827         4.210344
 H        -2.954445         1.512832         4.769164
 H        -2.203017        -0.242274         2.653003
 H         0.698519         0.692062         3.041108
 H         0.038476        -0.956639         2.353324
