19
Iteration:  2807charge 0 multiplicity 1
 O         0.897003         0.813636         0.142413
 C        -0.235273         0.897335         1.008590
 C        -1.872443         0.844111         0.543368
 C        -1.946713         1.659843         1.883040
 C        -0.643480         2.335054         1.451693
 O        -2.985675         2.277738         2.635461
 C        -2.355618         1.653721         3.934482
 C        -1.504954         0.640106         2.919377
 C        -0.088316         0.283160         2.457186
 H         0.791470         1.441981        -0.563005
 H        -1.846766         1.549006        -0.286208
 H        -2.496290         0.027701         0.483227
 H        -0.866847         3.160652         0.717667
 H        -0.037012         2.756509         2.294957
 H        -1.854905         2.434840         4.592359
 H        -3.187870         1.028378         4.505470
 H        -2.105409        -0.326094         2.923908
 H         0.727662         0.800213         2.961514
 H         0.000646        -0.878719         2.352185
