19
Iteration:  1550charge 0 multiplicity 1
 O         0.875922         0.882460         0.128108
 C        -0.181884         1.034125         1.057379
 C        -1.705340         0.767749         0.476874
 C        -1.989658         1.655867         1.854475
 C        -0.701629         2.462925         1.490093
 O        -2.920664         2.334374         2.726734
 C        -2.289033         1.617074         3.925199
 C        -1.644029         0.583939         2.907029
 C        -0.219722         0.187925         2.433824
 H         0.664635         0.026121        -0.375392
 H        -1.739263         1.238802        -0.523508
 H        -2.059708        -0.267955         0.454962
 H        -0.824472         2.943539         0.567949
 H         0.018007         2.938400         2.066409
 H        -1.714168         2.294703         4.502088
 H        -3.181350         1.351585         4.508241
 H        -2.297694        -0.184969         2.639442
 H         0.632261         0.571871         3.123392
 H        -0.064026        -0.864671         2.426657
