19
Iteration:  4772
 O         0.797366         0.716646         0.122686
 C        -0.235371         0.997614         1.075695
 C        -1.682396         0.858903         0.529944
 C        -1.982751         1.590729         1.864802
 C        -0.674131         2.486989         1.577781
 O        -3.007593         2.197929         2.667488
 C        -2.277651         1.727848         3.792245
 C        -1.591841         0.593512         2.907186
 C        -0.101612         0.254815         2.456057
 H         0.708739         1.411346        -0.616046
 H        -1.711547         1.544594        -0.396999
 H        -2.018477        -0.208114         0.363333
 H        -1.035807         3.154224         0.811679
 H        -0.180480         2.915625         2.369232
 H        -1.536493         2.485208         4.302844
 H        -3.051491         1.516042         4.621316
 H        -2.196216        -0.353166         2.955446
 H         0.718631         0.785204         3.042569
 H         0.153240        -0.798530         2.262256
