19
Iteration:  4126charge 0 multiplicity 1
 O         0.834063         0.752308         0.152779
 C        -0.235402         1.005684         1.052881
 C        -1.794383         0.826119         0.567992
 C        -1.937284         1.660494         1.853496
 C        -0.578763         2.416237         1.559421
 O        -3.006389         2.238484         2.599838
 C        -2.353026         1.713399         3.845115
 C        -1.557673         0.635427         2.923181
 C        -0.112473         0.236042         2.419605
 H         0.670286         1.270092        -0.678287
 H        -1.882820         1.498873        -0.395033
 H        -2.263424        -0.158628         0.685422
 H        -0.908021         3.011816         0.681688
 H         0.053414         2.833189         2.545832
 H        -1.922968         2.436000         4.538454
 H        -3.149753         1.142294         4.467279
 H        -2.067508        -0.373184         3.071936
 H         0.750471         0.619938         2.929077
 H         0.245867        -0.835086         2.251166
