19
Iteration:  2112
 O         0.855718         0.999242         0.068209
 C        -0.227509         0.980617         1.074796
 C        -1.779077         0.878646         0.633474
 C        -1.893643         1.654159         1.867660
 C        -0.594962         2.426871         1.550398
 O        -3.033508         2.227342         2.660991
 C        -2.267067         1.610139         3.784865
 C        -1.634632         0.581917         2.910997
 C        -0.161322         0.128317         2.458801
 H         0.922866         0.130340        -0.312859
 H        -1.917621         1.519550        -0.210861
 H        -2.135022        -0.074609         0.400581
 H        -0.856960         3.145871         0.781191
 H        -0.199291         3.076063         2.418664
 H        -1.498456         2.428466         4.006812
 H        -2.822785         1.337925         4.700828
 H        -2.401336        -0.215944         2.798992
 H         0.702402         0.083703         3.008234
 H        -0.310128        -0.955557         2.171039
