19
Iteration:  3359
 O         0.832321         0.787480         0.202661
 C        -0.215879         0.962247         1.024503
 C        -1.767989         0.887562         0.533229
 C        -1.957949         1.650066         1.855877
 C        -0.571097         2.344045         1.497992
 O        -3.054001         2.286845         2.691000
 C        -2.256626         1.615085         3.835042
 C        -1.600944         0.643447         2.930809
 C        -0.155073         0.274120         2.413326
 H         0.651915         1.361271        -0.613975
 H        -1.733996         1.522315        -0.359725
 H        -2.116942        -0.252778         0.331018
 H        -0.641072         2.968496         0.541535
 H        -0.183893         2.915529         2.353063
 H        -1.663562         2.447033         4.416530
 H        -2.937674         1.068379         4.487992
 H        -2.232451        -0.294748         2.924565
 H         0.642009         0.547899         3.057534
 H         0.006904        -0.771887         2.280141
