19
Iteration:   993
 O         0.802308         0.796261         0.180600
 C        -0.270522         1.025275         0.987775
 C        -1.736918         0.909115         0.419689
 C        -1.941467         1.584729         1.850388
 C        -0.610091         2.277882         1.753062
 O        -2.849221         2.292069         2.648111
 C        -2.294126         1.719329         3.819821
 C        -1.606161         0.627685         2.886711
 C        -0.276356         0.167401         2.375968
 H         1.028916         1.680501        -0.269842
 H        -1.916541         1.488827        -0.516810
 H        -2.260997        -0.080442         0.500135
 H        -0.742412         3.283680         1.180807
 H        -0.040551         2.514594         2.542111
 H        -1.525054         2.390721         4.367884
 H        -3.223845         1.492093         4.427860
 H        -2.347460        -0.247640         2.806028
 H         0.630071         0.471693         2.909794
 H        -0.081648        -0.928399         2.470254
