19
Iteration:  3378
 O         0.815677         0.766270         0.231590
 C        -0.297870         1.034665         1.046325
 C        -1.784138         0.870715         0.509195
 C        -1.918198         1.626623         1.827919
 C        -0.677466         2.467357         1.563305
 O        -2.914708         2.170941         2.623582
 C        -2.246569         1.697865         3.822443
 C        -1.610112         0.583951         2.883281
 C        -0.157208         0.201008         2.432717
 H         0.773019         1.524127        -0.430592
 H        -1.805900         1.545234        -0.340270
 H        -2.224773        -0.059573         0.647768
 H        -0.873479         3.186140         0.775474
 H         0.069434         2.852701         2.284061
 H        -1.436709         2.391239         4.173156
 H        -2.984588         1.608108         4.681963
 H        -2.309391        -0.261480         2.786516
 H         0.677311         0.627589         3.087933
 H        -0.062396        -0.984577         2.430254
