19
Iteration:  3697charge 0 multiplicity 1
 O         0.898323         0.737328         0.259442
 C        -0.263451         0.996230         1.013646
 C        -1.757617         0.857699         0.551630
 C        -2.001946         1.640775         1.839582
 C        -0.631577         2.472632         1.491674
 O        -2.963514         2.280472         2.666616
 C        -2.276625         1.628393         3.857534
 C        -1.572092         0.583552         2.891439
 C        -0.190587         0.265293         2.420600
 H         0.853898         1.215653        -0.587638
 H        -1.976251         1.304338        -0.390660
 H        -2.111649        -0.206305         0.441043
 H        -1.151376         3.063773         0.743927
 H         0.001731         2.994292         2.108889
 H        -1.653422         2.413909         4.312107
 H        -3.008241         1.230956         4.584106
 H        -2.215020        -0.287112         2.859507
 H         0.643832         0.657147         2.968654
 H        -0.070345        -0.788208         2.158495
