19
Iteration:  1953charge 0 multiplicity 1
 O         0.865475         0.884016         0.142443
 C        -0.232001         0.954834         1.094649
 C        -1.788974         0.939193         0.471730
 C        -2.008187         1.684733         1.776955
 C        -0.642471         2.398024         1.580627
 O        -3.127254         2.169510         2.787238
 C        -2.203273         1.687379         3.826784
 C        -1.550321         0.654099         2.808246
 C        -0.108227         0.190790         2.428714
 H         1.094970        -0.021311        -0.026499
 H        -1.647948         1.398712        -0.523094
 H        -2.125840        -0.061067         0.272116
 H        -0.661716         3.288335         0.929470
 H        -0.141563         2.812264         2.473556
 H        -1.563072         2.418933         4.290801
 H        -2.877598         1.147066         4.468632
 H        -2.237957        -0.182181         2.799677
 H         0.872339         0.328172         3.044380
 H        -0.189767        -0.865884         2.346078
