19
Iteration:   430
 O         0.932748         0.774784         0.283735
 C        -0.241000         0.951093         1.056097
 C        -1.771152         0.972799         0.421265
 C        -1.922133         1.701067         1.799592
 C        -0.581815         2.400842         1.581758
 O        -2.857600         2.401730         2.751997
 C        -2.378809         1.556624         3.793181
 C        -1.702467         0.564820         2.810288
 C        -0.242230         0.170945         2.449998
 H         0.668697         0.557273        -0.680683
 H        -1.815507         1.545294        -0.505792
 H        -2.398913         0.087792         0.418065
 H        -0.582808         3.191665         0.755681
 H         0.019622         2.784783         2.412661
 H        -1.792992         2.147421         4.491121
 H        -3.250772         1.108513         4.307031
 H        -2.431987        -0.249960         2.659504
 H         0.525201         0.378864         3.189514
 H        -0.118734        -0.966523         2.244599
