19
Iteration:   550
 O         0.884349         0.759565         0.211629
 C        -0.250874         0.924058         1.045933
 C        -1.699802         0.906041         0.489120
 C        -1.983454         1.691718         1.803736
 C        -0.587440         2.385297         1.573028
 O        -2.896801         2.332745         2.702048
 C        -2.269396         1.635439         3.824927
 C        -1.675681         0.672842         2.862919
 C        -0.369323         0.141934         2.378819
 H         1.293138         1.563186         0.527589
 H        -1.842255         1.514160        -0.370967
 H        -1.984496        -0.101911         0.377043
 H        -0.470753         3.036520         0.782501
 H        -0.001350         2.695902         2.427694
 H        -1.588026         2.286055         4.333260
 H        -2.955005         1.080443         4.442134
 H        -2.469727        -0.040918         2.670262
 H         0.487860         0.404322         2.982340
 H        -0.300397        -0.982427         2.267229
