19
Iteration:  3765charge 0 multiplicity 1
 O         0.887828         0.744383         0.161953
 C        -0.208196         1.006763         1.077832
 C        -1.795583         0.862713         0.559951
 C        -1.972631         1.575141         1.865464
 C        -0.672992         2.457975         1.541717
 O        -2.951126         2.224870         2.637470
 C        -2.326089         1.763274         3.831750
 C        -1.571727         0.609977         2.925542
 C        -0.142232         0.202915         2.372794
 H         0.931353         1.596901        -0.402210
 H        -1.891010         1.297174        -0.392426
 H        -2.198225        -0.183002         0.432388
 H        -0.886891         3.207127         0.825171
 H        -0.080131         2.821090         2.351109
 H        -1.738590         2.571871         4.322679
 H        -3.034866         1.340915         4.473718
 H        -2.190984        -0.285458         3.093576
 H         0.641772         0.491882         3.067102
 H        -0.322281        -0.896788         2.139239
