19
Iteration:  4760charge 0 multiplicity 1
 O         0.818797         0.648302         0.122770
 C        -0.177051         1.138832         1.056282
 C        -1.728894         0.865355         0.497084
 C        -2.014058         1.514325         1.826088
 C        -0.698655         2.401515         1.623084
 O        -3.056029         2.207794         2.628246
 C        -2.245421         1.729649         3.849451
 C        -1.516366         0.605761         3.008809
 C        -0.138484         0.335294         2.380925
 H         1.029462         1.381401        -0.437573
 H        -1.980565         1.650200        -0.361047
 H        -2.130877        -0.095534         0.116244
 H        -0.672317         3.255790         0.889069
 H        -0.232653         2.775036         2.461812
 H        -1.596244         2.718991         4.114195
 H        -2.859639         1.214434         4.646957
 H        -2.211861        -0.292821         3.033992
 H         0.728353         0.556143         3.105250
 H        -0.114535        -0.740046         2.315340
