19
Iteration:  3672charge 0 multiplicity 1
 O         0.890572         0.756405         0.179359
 C        -0.189243         0.936813         1.034884
 C        -1.802327         0.877701         0.493490
 C        -1.934765         1.652355         1.807272
 C        -0.640415         2.413926         1.486098
 O        -2.982900         2.262458         2.677341
 C        -2.386919         1.640166         3.932201
 C        -1.566529         0.646469         2.920699
 C        -0.113848         0.258248         2.463022
 H         0.604301         1.142813        -0.621336
 H        -2.135568         1.359190        -0.490173
 H        -2.123386        -0.129248         0.367519
 H        -0.786403         3.178998         0.663952
 H         0.012786         2.837407         2.314073
 H        -1.765435         2.456846         4.422754
 H        -3.194806         1.168908         4.672398
 H        -2.262527        -0.202243         2.745762
 H         0.702053         0.712386         3.039574
 H        -0.020265        -0.718324         2.332119
