19
Iteration:  4283
 O         0.886222         0.654357         0.226495
 C        -0.206335         1.010063         1.002596
 C        -1.801654         0.919311         0.453907
 C        -2.017770         1.599345         1.860974
 C        -0.631710         2.417670         1.477201
 O        -2.999701         2.244981         2.670218
 C        -2.252677         1.595995         3.922575
 C        -1.592598         0.643594         2.893502
 C        -0.176511         0.348989         2.437730
 H         1.034404         1.276036        -0.441837
 H        -2.035724         1.640624        -0.309118
 H        -2.214882        -0.125875         0.349585
 H        -0.819174         3.178991         0.693735
 H         0.025226         2.958014         2.313137
 H        -1.664845         2.284596         4.477942
 H        -2.941221         1.216157         4.504589
 H        -2.170470        -0.263645         2.801403
 H         0.562766         0.880110         3.045678
 H         0.129123        -0.643304         2.439057
