19
Iteration:  4623
 O         0.749459         0.652327         0.183076
 C        -0.170674         1.077822         1.069481
 C        -1.647372         0.940991         0.546958
 C        -2.017299         1.656440         1.823783
 C        -0.547454         2.468431         1.547366
 O        -3.183167         2.128227         2.704113
 C        -2.218834         1.632755         3.782638
 C        -1.534816         0.654673         2.945706
 C        -0.132879         0.299153         2.397554
 H         0.621196         1.096240        -0.731160
 H        -1.767603         1.450114        -0.338496
 H        -2.138219        -0.025982         0.197134
 H        -0.641187         3.229754         0.787759
 H         0.035236         2.872873         2.497386
 H        -1.657105         2.564679         4.258446
 H        -2.918404         1.158890         4.569597
 H        -2.155549        -0.230656         2.864273
 H         0.717765         0.633004         2.940844
 H         0.007457        -0.788897         2.204992
