19
Iteration:  3458
 O         0.885311         0.755370         0.202317
 C        -0.258608         1.040545         1.049307
 C        -1.737498         0.850123         0.490598
 C        -1.906259         1.712563         1.848059
 C        -0.685468         2.364065         1.552908
 O        -2.967933         2.278211         2.708444
 C        -2.313791         1.621435         3.828068
 C        -1.629416         0.560970         2.901272
 C        -0.141312         0.290257         2.430033
 H         0.531495         1.047522        -0.684500
 H        -1.946503         1.253557        -0.485036
 H        -2.353761        -0.155898         0.520355
 H        -0.835062         3.165477         0.717079
 H        -0.198016         2.782010         2.445894
 H        -1.485723         2.436973         4.117766
 H        -3.037387         1.377384         4.582788
 H        -2.258603        -0.322103         2.602384
 H         0.788042         0.593059         2.935316
 H         0.128659        -0.775039         2.282377
