19
Iteration:  2536charge 0 multiplicity 1
 O         0.838304         0.722008         0.138898
 C        -0.241172         1.069617         0.987170
 C        -1.790660         0.850547         0.589886
 C        -1.897204         1.738928         1.867601
 C        -0.624128         2.561715         1.436326
 O        -3.002838         2.198117         2.700450
 C        -2.273869         1.606449         3.880739
 C        -1.614139         0.619511         2.934642
 C        -0.204630         0.184359         2.379004
 H         1.687785         1.001854         0.532002
 H        -1.898918         1.342069        -0.477462
 H        -2.121099        -0.211413         0.572559
 H        -0.709672         3.221848         0.569181
 H        -0.223659         2.926267         2.325441
 H        -1.546757         2.299411         4.380414
 H        -3.017988         1.215903         4.656153
 H        -2.269853        -0.288367         2.735644
 H         0.630781         0.330162         2.996084
 H        -0.213631        -0.911814         2.174370
