19
Iteration:  1402
 O         0.810240         0.657356         0.119088
 C        -0.211711         1.031797         1.041064
 C        -1.739984         0.893483         0.494603
 C        -1.916925         1.670454         1.839458
 C        -0.685418         2.525980         1.463134
 O        -3.017199         2.277576         2.740180
 C        -2.295685         1.584949         3.818734
 C        -1.610364         0.658681         2.910592
 C        -0.151898         0.245333         2.453766
 H         1.664748         0.548187         0.627281
 H        -1.839973         1.500069        -0.423200
 H        -2.199621        -0.098132         0.479802
 H        -0.830836         3.421977         0.834574
 H        -0.126580         2.990010         2.378654
 H        -1.598349         2.199533         4.330160
 H        -2.860360         1.016232         4.491021
 H        -2.177430        -0.243111         2.665932
 H         0.717042         0.468693         3.054739
 H        -0.161179        -0.868924         2.352903
