19
Iteration:  2758charge 0 multiplicity 1
 O         0.794694         0.741056         0.177658
 C        -0.224620         0.972808         1.113877
 C        -1.803665         0.817885         0.558928
 C        -2.024514         1.675316         1.758686
 C        -0.772881         2.419139         1.579451
 O        -3.018234         2.232589         2.702546
 C        -2.141886         1.682222         3.782478
 C        -1.541774         0.685546         2.801967
 C        -0.099757         0.208552         2.427662
 H         1.437981         1.480898         0.096823
 H        -1.844110         1.432163        -0.351290
 H        -2.136398        -0.278303         0.668478
 H        -0.711917         3.059800         0.717835
 H        -0.348577         2.928702         2.432554
 H        -1.460824         2.404553         4.209467
 H        -2.579069         1.243696         4.593109
 H        -2.230952        -0.154042         2.838000
 H         0.675068         0.770194         2.978747
 H         0.015035        -0.789653         2.255602
