19
Iteration:  2892charge 0 multiplicity 1
 O         0.868794         0.848783         0.272124
 C        -0.258842         0.983072         1.020024
 C        -1.820053         0.766339         0.534911
 C        -1.991374         1.687359         1.858430
 C        -0.643933         2.348441         1.578013
 O        -2.944917         2.234092         2.619855
 C        -2.206355         1.678285         3.799940
 C        -1.563775         0.645461         2.915718
 C        -0.215047         0.259471         2.356979
 H         0.732548         1.544659        -0.456050
 H        -2.044106         1.210894        -0.500335
 H        -2.399738        -0.258242         0.609222
 H        -0.750039         3.099262         0.781120
 H        -0.113659         2.612547         2.494839
 H        -1.538406         2.397234         4.286801
 H        -2.839813         1.419329         4.605463
 H        -2.099191        -0.301061         2.840665
 H         0.724881         0.574524         2.762645
 H        -0.120419        -0.826323         2.339877
