19
Iteration:  3237charge 0 multiplicity 1
 O         0.875221         0.838241         0.238057
 C        -0.267420         1.011612         1.053836
 C        -1.802150         0.833652         0.541636
 C        -1.951945         1.633289         1.853799
 C        -0.742949         2.398861         1.550071
 O        -2.938456         2.269364         2.611045
 C        -2.195373         1.696673         3.822868
 C        -1.581169         0.637962         2.897272
 C        -0.175168         0.116962         2.410056
 H         0.708556         1.544558        -0.463692
 H        -1.751770         1.522653        -0.358190
 H        -2.064409        -0.292814         0.507068
 H        -0.942144         3.060110         0.678270
 H        -0.129905         2.973510         2.318471
 H        -1.629182         2.473255         4.380626
 H        -2.944670         1.240380         4.530159
 H        -2.130100        -0.302716         2.753230
 H         0.653440         0.279949         3.024013
 H        -0.222220        -0.948885         2.294126
