19
Iteration:  3525charge 0 multiplicity 1
 O         0.841473         0.709082         0.219593
 C        -0.230181         1.035037         1.043705
 C        -1.779615         0.905245         0.533813
 C        -1.938818         1.650283         1.850504
 C        -0.649151         2.387653         1.557799
 O        -3.033024         2.184893         2.589614
 C        -2.250403         1.637866         3.869821
 C        -1.549779         0.670883         2.932565
 C        -0.163547         0.293977         2.384526
 H         0.894614         1.349744        -0.529064
 H        -1.976844         1.488677        -0.342673
 H        -2.335131        -0.109105         0.537127
 H        -0.694013         3.248721         0.848677
 H         0.055140         2.633631         2.373780
 H        -1.597581         2.492075         4.210666
 H        -2.913757         1.195048         4.583380
 H        -2.264136        -0.186649         2.896048
 H         0.621595         0.541995         3.034918
 H        -0.048672        -0.715163         2.169769
