19
Iteration:  1415charge 0 multiplicity 1
 O         0.782193         0.771028         0.128524
 C        -0.238720         0.937784         1.074986
 C        -1.723114         0.917312         0.564112
 C        -1.969858         1.754269         1.807946
 C        -0.604664         2.436431         1.448846
 O        -2.954401         2.246422         2.750271
 C        -2.303403         1.565259         3.854038
 C        -1.628516         0.563122         2.825654
 C        -0.167097         0.321278         2.473237
 H         1.547714         0.482377         0.610309
 H        -1.668443         1.459554        -0.407975
 H        -2.311500         0.011864         0.336410
 H        -0.765695         2.751958         0.350992
 H         0.008998         2.991824         2.174589
 H        -1.665979         2.300220         4.292802
 H        -3.059002         1.342452         4.619438
 H        -2.386918        -0.272126         2.788874
 H         0.638015         0.737371         3.099338
 H        -0.022675        -0.807796         2.289844
