19
Iteration:  3288
 O         0.866551         0.696382         0.177510
 C        -0.192047         0.971140         1.030411
 C        -1.752622         0.925342         0.492764
 C        -1.916520         1.680546         1.803057
 C        -0.665397         2.427082         1.544441
 O        -3.071888         2.165930         2.703349
 C        -2.199472         1.651708         3.843775
 C        -1.609192         0.652530         2.907484
 C        -0.220055         0.286021         2.447887
 H         0.808033         1.389901        -0.569602
 H        -1.906416         1.600147        -0.357691
 H        -2.415276         0.174091         0.463455
 H        -0.614862         3.038349         0.683641
 H        -0.155772         2.819194         2.410644
 H        -1.527069         2.337928         4.352366
 H        -2.932710         1.139493         4.547667
 H        -2.187191        -0.224247         2.756098
 H         0.684117         0.817170         2.952379
 H         0.133465        -0.810434         2.632651
