19
Iteration:  2308
 O         0.853434         0.760807         0.211388
 C        -0.247315         1.023254         1.035655
 C        -1.772192         0.943171         0.428552
 C        -1.999437         1.653900         1.847308
 C        -0.612142         2.419320         1.560725
 O        -2.987346         2.185423         2.734954
 C        -2.272293         1.659497         3.868292
 C        -1.606105         0.552778         2.869692
 C        -0.169896         0.225934         2.397087
 H         0.885748         1.492918        -0.470097
 H        -1.758801         1.652848        -0.430567
 H        -2.341987         0.044328         0.273493
 H        -0.675407         3.178219         0.741708
 H         0.145706         2.789422         2.376351
 H        -1.483753         2.382841         4.108061
 H        -2.926482         1.444494         4.750345
 H        -2.241265        -0.346252         2.921133
 H         0.605275         0.630901         3.006446
 H         0.022021        -0.931792         2.300173
