19
Iteration:    56
 O         0.936310         0.761473         0.357051
 C        -0.204836         1.044957         1.042389
 C        -1.698695         1.089827         0.417847
 C        -1.939084         1.676959         1.906864
 C        -0.454199         2.314227         1.730454
 O        -2.906499         2.440461         2.617808
 C        -2.301347         1.552503         3.828282
 C        -1.775297         0.537588         2.787822
 C        -0.429685         0.102403         2.253742
 H         0.843791         0.198156        -0.446774
 H        -1.910426         1.778168        -0.384743
 H        -2.172387         0.123631         0.198887
 H        -0.530885         3.113683         1.048675
 H         0.111646         2.617071         2.645852
 H        -1.654734         2.178216         4.436789
 H        -3.062933         1.064226         4.413346
 H        -2.565965        -0.216214         2.853581
 H         0.419715         0.288130         2.871668
 H        -0.370833        -0.966732         1.962654
