19
Iteration:  3025
 O         0.870130         0.757810         0.156515
 C        -0.241374         1.039291         1.016348
 C        -1.725539         0.807083         0.531940
 C        -1.972842         1.610988         1.857108
 C        -0.708697         2.412278         1.579986
 O        -2.953368         2.362883         2.637740
 C        -2.308835         1.590990         3.877912
 C        -1.577323         0.579201         2.895271
 C        -0.124619         0.305369         2.423155
 H         0.732463         1.270186        -0.700586
 H        -1.841073         1.085527        -0.614768
 H        -2.161323        -0.229175         0.697848
 H        -0.960452         3.304995         0.954542
 H        -0.117615         2.802328         2.420272
 H        -1.624534         2.261378         4.399695
 H        -3.096133         1.085673         4.472465
 H        -2.317063        -0.223105         2.885707
 H         0.633446         0.615258         3.094700
 H        -0.061159        -0.823721         2.303006
