19
Iteration:    75
 O         0.989513         0.742594         0.284322
 C        -0.196909         0.905276         1.100175
 C        -1.738347         1.071444         0.416292
 C        -1.934696         1.790191         1.774540
 C        -0.597677         2.409148         1.713881
 O        -2.858247         2.423359         2.717924
 C        -2.385727         1.552530         3.792175
 C        -1.753147         0.577022         2.801457
 C        -0.307207        -0.012637         2.353762
 H         0.650627         0.878179        -0.683831
 H        -1.530057         1.770580        -0.399490
 H        -2.283420         0.154746         0.203058
 H        -0.518395         3.282693         0.893477
 H        -0.100884         2.669153         2.649032
 H        -1.721046         2.058272         4.509677
 H        -3.250430         1.391601         4.454480
 H        -2.553888        -0.055582         2.456899
 H         0.570310        -0.059048         3.142008
 H        -0.448763        -1.037365         2.120070
