19
Iteration:  2865charge 0 multiplicity 1
 O         0.856934         0.668276         0.143968
 C        -0.146898         1.032846         1.048145
 C        -1.646311         0.893379         0.415923
 C        -2.018864         1.609548         1.853642
 C        -0.720567         2.426292         1.499514
 O        -3.074722         2.273833         2.785785
 C        -2.242279         1.711068         3.872212
 C        -1.577719         0.573267         2.901219
 C        -0.182665         0.245109         2.459317
 H         0.726161         1.351853        -0.602562
 H        -1.885622         1.584726        -0.377679
 H        -2.038407        -0.046830         0.026001
 H        -0.952410         3.056501         0.623612
 H        -0.301373         3.057474         2.310127
 H        -1.454168         2.473969         4.188758
 H        -2.937223         1.343468         4.743252
 H        -2.052075        -0.419775         2.855829
 H         0.641262         0.682788         3.116641
 H         0.099432        -0.843521         2.448034
