19
Iteration:   922charge 0 multiplicity 1
 O         0.832041         0.561863         0.291498
 C        -0.225425         1.053800         1.032173
 C        -1.723843         1.038237         0.441364
 C        -1.983512         1.717829         1.818276
 C        -0.603973         2.433390         1.615632
 O        -2.973166         2.319822         2.774222
 C        -2.268256         1.519702         3.811690
 C        -1.661583         0.591499         2.745223
 C        -0.192496         0.290098         2.401084
 H         0.765033         0.855133        -0.672428
 H        -1.768142         1.616011        -0.473637
 H        -2.047757         0.024140         0.368371
 H        -0.851366         3.169621         0.970696
 H        -0.026722         2.922597         2.472083
 H        -1.491027         2.205977         4.216574
 H        -2.877938         1.064189         4.594945
 H        -2.240949        -0.308449         2.646323
 H         0.639550         0.593769         3.066902
 H         0.003027        -0.766947         2.182790
