19
Iteration:  2065charge 0 multiplicity 1
 O         0.841092         0.764343         0.133630
 C        -0.245528         1.055033         1.032490
 C        -1.751780         1.027596         0.488441
 C        -1.969148         1.607947         1.890820
 C        -0.719223         2.455735         1.573185
 O        -3.006665         2.197253         2.696944
 C        -2.252262         1.600250         3.781639
 C        -1.511125         0.567628         2.914066
 C        -0.155669         0.258596         2.413973
 H         1.091677        -0.146929         0.331134
 H        -1.904627         1.677824        -0.350755
 H        -2.420352         0.209757         0.265571
 H        -0.930131         3.281756         0.832448
 H         0.024190         2.936249         2.292037
 H        -1.586918         2.246832         4.275942
 H        -3.032313         1.223694         4.509678
 H        -2.211592        -0.302215         2.806108
 H         0.653495         0.642155         3.101820
 H         0.160707        -0.806316         2.310359
