19
Iteration:  4217charge 0 multiplicity 1
 O         0.927521         0.767440         0.180611
 C        -0.247638         1.026090         1.021956
 C        -1.692092         0.786897         0.460261
 C        -2.024944         1.594535         1.839136
 C        -0.691023         2.428318         1.549133
 O        -3.011525         2.268851         2.692297
 C        -2.294733         1.773885         3.894287
 C        -1.584814         0.618642         2.964811
 C        -0.146189         0.148665         2.377105
 H         0.739448         1.384439        -0.629319
 H        -1.960616         1.547845        -0.265572
 H        -2.009203        -0.252329         0.256959
 H        -0.936417         3.157967         0.745299
 H        -0.218188         2.913719         2.557707
 H        -1.541962         2.508921         4.172297
 H        -2.963616         1.646955         4.633094
 H        -2.271504        -0.215657         3.000211
 H         0.790381         0.301667         2.884179
 H        -0.165032        -0.883771         2.203621
