19
Iteration:    16
 O         0.860410         0.781507         0.183878
 C        -0.125853         0.941572         1.223703
 C        -1.793952         1.239424         0.429669
 C        -1.954620         1.741166         1.755918
 C        -0.446205         2.290308         1.769241
 O        -3.020789         2.380418         2.638003
 C        -2.235953         1.535390         3.790971
 C        -1.714766         0.630113         2.782142
 C        -0.354034        -0.010626         2.378552
 H         1.595924         0.183129         0.466459
 H        -1.730782         1.972913        -0.387344
 H        -2.263301         0.333328         0.008556
 H        -0.370280         2.948909         0.947441
 H         0.143762         2.825844         2.587250
 H        -1.597097         2.286634         4.304806
 H        -3.044663         0.964367         4.239617
 H        -2.494572        -0.183899         2.598490
 H         0.320076         0.045036         3.196614
 H        -0.551338        -1.145326         2.126456
