19
Iteration:  3702
 O         0.876390         0.724333         0.283922
 C        -0.231909         0.999838         1.026328
 C        -1.803363         0.862756         0.500258
 C        -1.974649         1.637560         1.840214
 C        -0.678121         2.481839         1.496378
 O        -2.989427         2.290977         2.652841
 C        -2.252823         1.616594         3.858069
 C        -1.575701         0.593379         2.863723
 C        -0.153389         0.266073         2.430094
 H         0.747280         1.320637        -0.520036
 H        -2.044758         1.303401        -0.522410
 H        -1.973029        -0.231589         0.586120
 H        -1.077686         3.162441         0.703564
 H         0.138365         2.895021         2.268089
 H        -1.609815         2.382023         4.307770
 H        -2.884197         1.333193         4.725562
 H        -2.235964        -0.303151         2.802533
 H         0.750930         0.542435         3.063107
 H        -0.023759        -0.926900         2.222399
