19
Iteration:  1827
 O         0.888525         0.895627         0.163855
 C        -0.239404         0.992874         0.997280
 C        -1.762619         0.923389         0.474157
 C        -2.053088         1.640093         1.812840
 C        -0.660540         2.354346         1.595992
 O        -3.062641         2.171505         2.696117
 C        -2.172136         1.735568         3.881605
 C        -1.575676         0.658048         2.920819
 C        -0.156115         0.204191         2.398853
 H         0.991969         0.045443        -0.252514
 H        -1.824100         1.655833        -0.386629
 H        -2.093929        -0.178112         0.324577
 H        -0.710376         3.180418         0.882225
 H        -0.211644         2.404746         2.559565
 H        -1.499219         2.450423         4.278751
 H        -2.884121         1.381416         4.656942
 H        -2.230059        -0.283044         2.892689
 H         0.685743         0.321005         3.066851
 H        -0.067659        -0.924603         2.040955
