19
Iteration:  3409
 O         0.916979         0.727704         0.216502
 C        -0.255373         0.997855         0.994189
 C        -1.746243         0.855322         0.525854
 C        -2.028046         1.585633         1.825588
 C        -0.678384         2.421359         1.561246
 O        -3.061140         2.220586         2.718236
 C        -2.198341         1.718316         3.875259
 C        -1.617342         0.680662         2.876359
 C        -0.157163         0.254743         2.338410
 H         0.992393         1.537063        -0.281621
 H        -1.604316         1.492605        -0.460571
 H        -2.238414        -0.017004         0.297903
 H        -0.747805         3.164437         0.845339
 H         0.060517         2.664868         2.339470
 H        -1.515549         2.403227         4.136313
 H        -2.937244         1.421246         4.657946
 H        -2.133651        -0.235692         2.992589
 H         0.716909         0.379768         3.064088
 H        -0.181120        -0.934685         2.293767
