19
Iteration:   915charge 0 multiplicity 1
 O         0.848402         0.573389         0.283409
 C        -0.168301         1.031397         1.032456
 C        -1.815361         1.068493         0.456123
 C        -1.956166         1.662688         1.839141
 C        -0.627816         2.429237         1.641718
 O        -2.929512         2.327495         2.764191
 C        -2.261001         1.546729         3.738646
 C        -1.698942         0.552013         2.820072
 C        -0.153359         0.280859         2.423143
 H         0.833335         1.017237        -0.640013
 H        -1.781717         1.702438        -0.442172
 H        -2.269089         0.078425         0.204215
 H        -0.932922         3.219735         0.770798
 H        -0.138377         2.844572         2.426672
 H        -1.605752         2.351240         4.261936
 H        -3.024743         1.076183         4.430616
 H        -2.311273        -0.342407         2.549200
 H         0.698431         0.738566         2.955256
 H        -0.056334        -0.743158         2.120651
