19
Iteration:  4711charge 0 multiplicity 1
 O         0.855249         0.822620         0.173105
 C        -0.206517         1.037881         1.096045
 C        -1.799612         0.833827         0.549555
 C        -1.999935         1.676245         1.790744
 C        -0.611369         2.376313         1.428773
 O        -3.023704         2.205493         2.667056
 C        -2.165485         1.628381         3.866065
 C        -1.637267         0.622594         2.882509
 C        -0.184782         0.229106         2.485849
 H         1.029382         1.796667        -0.113413
 H        -1.829041         1.327287        -0.393539
 H        -2.227014        -0.222189         0.654859
 H        -0.948859         3.064945         0.624087
 H         0.048004         3.109429         2.155722
 H        -1.396065         2.303232         4.213361
 H        -2.871112         1.240537         4.604369
 H        -2.313458        -0.220467         2.859903
 H         0.627066         0.397263         3.127885
 H        -0.226274        -0.882617         2.430227
