19
Iteration:   153charge 0 multiplicity 1
 O         0.815695         0.740070         0.154636
 C        -0.213208         1.022064         1.137460
 C        -1.641562         1.062188         0.413131
 C        -1.903022         1.708677         1.729590
 C        -0.423449         2.414757         1.697387
 O        -2.992903         2.334226         2.702305
 C        -2.390018         1.562686         3.848432
 C        -1.706963         0.571213         2.823691
 C        -0.330330         0.131077         2.388994
 H         1.368541         0.066730         0.563237
 H        -1.589604         1.826193        -0.317182
 H        -2.145719         0.215888        -0.050332
 H        -0.346992         3.185240         0.946090
 H         0.087459         2.674740         2.672999
 H        -1.683266         2.257378         4.320304
 H        -3.129003         1.241435         4.568636
 H        -2.439154        -0.214314         2.748398
 H         0.555649         0.005805         3.063831
 H        -0.603599        -0.892134         2.106285
