19
Iteration:  1322charge 0 multiplicity 1
 O         0.744219         0.843759         0.097372
 C        -0.251070         1.009111         1.053229
 C        -1.684737         0.750835         0.523749
 C        -2.027923         1.667447         1.855785
 C        -0.591056         2.368011         1.605894
 O        -2.949727         2.328817         2.677466
 C        -2.261646         1.707574         3.828236
 C        -1.646412         0.570232         2.855913
 C        -0.179097         0.202061         2.428226
 H         1.491609         1.425287         0.443632
 H        -1.869531         1.201377        -0.459149
 H        -1.971356        -0.318997         0.412506
 H        -0.491878         2.975360         0.684511
 H         0.009291         2.696082         2.490679
 H        -1.536767         2.425085         4.168506
 H        -2.952330         1.387398         4.621081
 H        -2.299915        -0.301678         2.866214
 H         0.694449         0.538821         3.036643
 H        -0.152211        -0.869696         2.322161
