19
Iteration:  1826charge 0 multiplicity 1
 O         0.890615         0.903035         0.163953
 C        -0.236097         0.992520         1.000933
 C        -1.752433         0.910331         0.480486
 C        -2.062662         1.641205         1.806802
 C        -0.658291         2.352347         1.589472
 O        -3.062126         2.174435         2.702870
 C        -2.174610         1.732997         3.891684
 C        -1.586941         0.663055         2.913157
 C        -0.158644         0.196500         2.388074
 H         0.992985         0.022625        -0.252752
 H        -1.805819         1.642959        -0.374792
 H        -2.105592        -0.151415         0.313706
 H        -0.712527         3.183323         0.875635
 H        -0.144685         2.407795         2.546455
 H        -1.474181         2.456626         4.279372
 H        -2.909481         1.397322         4.690306
 H        -2.215409        -0.284953         2.887764
 H         0.674497         0.361397         3.054370
 H        -0.064183        -0.913263         2.064937
