19
Iteration:  2257
 O         0.706042         0.877435         0.159252
 C        -0.237014         1.036654         1.087204
 C        -1.724432         0.919959         0.573081
 C        -1.914462         1.625403         1.849650
 C        -0.626631         2.375423         1.480935
 O        -2.938091         2.221351         2.686308
 C        -2.246483         1.638218         3.838861
 C        -1.596612         0.562329         2.870860
 C        -0.207508         0.194064         2.376827
 H         1.595451         1.024029         0.628955
 H        -1.721532         1.664194        -0.233546
 H        -2.191636        -0.039941         0.392555
 H        -0.914570         2.864005         0.522727
 H        -0.275537         3.062842         2.249848
 H        -1.419617         2.182866         4.344044
 H        -3.039074         1.285359         4.435811
 H        -2.345864        -0.229658         2.803504
 H         0.690946         0.451503         3.006162
 H        -0.094024        -0.849767         2.191319
