19
Iteration:   284
 O         0.897446         0.654369         0.122271
 C        -0.207281         1.029431         1.032123
 C        -1.717278         1.071625         0.439500
 C        -1.977603         1.658129         1.879433
 C        -0.477140         2.310640         1.657331
 O        -2.925640         2.393192         2.647247
 C        -2.411541         1.552332         3.843339
 C        -1.678052         0.619706         2.839807
 C        -0.329510         0.163910         2.406718
 H         1.493205         1.352482         0.258596
 H        -1.619909         1.738042        -0.406283
 H        -2.320366         0.141317         0.371045
 H        -0.486567         3.180036         1.037744
 H         0.179775         2.823988         2.526575
 H        -1.847748         2.149876         4.616718
 H        -3.159370         0.927932         4.345460
 H        -2.356066        -0.229564         2.829276
 H         0.353476         0.505111         3.290092
 H        -0.265173        -1.000842         2.430939
