19
Iteration:  4348
 O         0.876032         0.850552         0.176798
 C        -0.277479         0.919469         1.017768
 C        -1.757494         0.890799         0.518351
 C        -1.922927         1.607324         1.882987
 C        -0.635686         2.343041         1.567651
 O        -3.003206         2.215545         2.650506
 C        -2.310777         1.755974         3.823576
 C        -1.588583         0.576259         2.893959
 C        -0.136390         0.242159         2.440713
 H         0.520203         1.184496        -0.727205
 H        -1.932120         1.487261        -0.376334
 H        -2.334706        -0.107149         0.531011
 H        -0.669725         3.028390         0.840602
 H         0.178700         2.731348         2.213631
 H        -1.564241         2.449234         4.277772
 H        -3.041223         1.619098         4.599594
 H        -2.198235        -0.308697         2.852791
 H         0.548722         0.812844         3.045853
 H         0.020370        -0.759613         2.568068
