19
Iteration:  3439charge 0 multiplicity 1
 O         0.882553         0.784532         0.250696
 C        -0.230373         1.025745         1.066995
 C        -1.825143         0.880997         0.579324
 C        -1.980602         1.582741         1.841537
 C        -0.637896         2.477731         1.504077
 O        -2.972380         2.249138         2.634581
 C        -2.211920         1.620374         3.826669
 C        -1.585936         0.638049         2.885070
 C        -0.193375         0.187592         2.406582
 H         0.677246         1.303411        -0.614921
 H        -2.013401         1.422963        -0.337273
 H        -2.310121        -0.081348         0.284237
 H        -0.733888         3.048170         0.576489
 H         0.086828         2.943675         2.188288
 H        -1.549449         2.402099         4.301612
 H        -2.969913         1.196042         4.509262
 H        -2.211585        -0.245095         2.957423
 H         0.496737         0.572560         3.119378
 H        -0.109615        -0.842440         2.335159
