19
Iteration:   697charge 0 multiplicity 1
 O         0.822553         0.654535         0.157296
 C        -0.190624         1.024057         1.087624
 C        -1.643270         0.979471         0.476849
 C        -1.890354         1.651253         1.791807
 C        -0.717750         2.614292         1.656130
 O        -2.942538         2.220115         2.673843
 C        -2.245251         1.663121         3.839967
 C        -1.673331         0.651125         2.889017
 C        -0.316977         0.087461         2.338382
 H         1.670148         0.639803         0.583723
 H        -1.842994         1.570002        -0.477851
 H        -1.988021        -0.105017         0.353015
 H        -0.826506         3.360442         0.799782
 H        -0.350516         3.020723         2.465610
 H        -1.508577         2.320772         4.317763
 H        -2.978032         1.362532         4.614344
 H        -2.416283        -0.203426         2.848576
 H         0.627766         0.191680         3.001036
 H        -0.398723        -0.982295         2.036172
