19
Iteration:  2675
 O         0.670829         0.790670         0.027488
 C        -0.239382         1.018565         1.063195
 C        -1.725351         0.780263         0.557668
 C        -1.954452         1.656735         1.796799
 C        -0.592391         2.438339         1.530280
 O        -2.994427         2.255590         2.680326
 C        -2.250802         1.599713         3.818580
 C        -1.587089         0.623829         2.884143
 C        -0.150728         0.342024         2.553046
 H         1.549404         0.825736         0.388911
 H        -1.806859         1.097573        -0.432926
 H        -2.131983        -0.190206         0.616413
 H        -0.594473         2.921002         0.546799
 H         0.052460         2.954822         2.290137
 H        -1.487606         2.231891         4.310142
 H        -2.974159         1.074022         4.524562
 H        -2.265568        -0.235389         2.887199
 H         0.463018         0.991511         3.207941
 H         0.302575        -0.701759         2.683768
