19
Iteration:  4537
 O         0.901828         0.729198         0.210727
 C        -0.181683         1.051053         1.050083
 C        -1.704253         0.822121         0.492339
 C        -2.057028         1.612165         1.842309
 C        -0.749038         2.446554         1.527930
 O        -3.009748         2.275016         2.748850
 C        -2.206447         1.648539         3.828348
 C        -1.604400         0.602640         2.871327
 C        -0.174977         0.246689         2.386974
 H         1.117062         1.439230        -0.394179
 H        -1.930506         1.431932        -0.421653
 H        -2.073501        -0.311143         0.368283
 H        -0.948285         3.072193         0.673358
 H        -0.240107         2.983647         2.248874
 H        -1.452918         2.379947         4.336693
 H        -2.768274         1.552357         4.716228
 H        -2.352177        -0.242526         2.828649
 H         0.666584         0.523096         3.002228
 H        -0.217933        -0.838132         2.103802
