19
Iteration:   317
 O         0.807669         0.754920         0.222885
 C        -0.291076         0.987263         1.124998
 C        -1.665680         0.998187         0.483113
 C        -1.916918         1.747079         1.868180
 C        -0.562699         2.427853         1.608925
 O        -2.924710         2.440686         2.691084
 C        -2.306859         1.509145         3.749950
 C        -1.677810         0.587332         2.776835
 C        -0.292352         0.049823         2.358239
 H         1.626022         0.908150         0.732982
 H        -1.486056         1.336434        -0.540199
 H        -2.267082         0.081533         0.414026
 H        -0.742055         2.975528         0.701094
 H         0.141875         2.897560         2.474079
 H        -1.506279         2.075974         4.320649
 H        -3.134155         1.215357         4.412344
 H        -2.312265        -0.231533         2.446885
 H         0.375887         0.261478         3.274077
 H        -0.327348        -1.101278         2.296699
