19
Iteration:  1694charge 0 multiplicity 1
 O         0.859781         0.909018         0.142503
 C        -0.248375         1.014777         0.985770
 C        -1.720681         0.901609         0.519853
 C        -2.020469         1.597506         1.849115
 C        -0.656802         2.335089         1.585904
 O        -2.956912         2.222542         2.650104
 C        -2.225081         1.703388         3.880056
 C        -1.625812         0.592925         2.895911
 C        -0.190636         0.264113         2.413155
 H         0.838253         0.017035        -0.229817
 H        -1.854022         1.460704        -0.460935
 H        -2.211619        -0.072977         0.657221
 H        -0.710493         3.106222         0.882722
 H        -0.091892         2.625821         2.459000
 H        -1.670479         2.398335         4.423591
 H        -3.003176         1.240900         4.488582
 H        -2.190932        -0.341148         2.953287
 H         0.680267         0.633634         3.013035
 H        -0.037704        -0.856787         2.371466
