19
Iteration:  1543charge 0 multiplicity 1
 O         0.868256         0.885379         0.179621
 C        -0.219208         1.028073         1.069898
 C        -1.696201         0.747818         0.462062
 C        -1.966127         1.585601         1.855168
 C        -0.724207         2.410541         1.503812
 O        -2.868099         2.319111         2.700024
 C        -2.262391         1.647363         3.961848
 C        -1.643901         0.606277         2.848877
 C        -0.237112         0.241929         2.396679
 H         0.689364         0.034884        -0.298020
 H        -1.853844         1.540708        -0.302281
 H        -2.199346        -0.234465         0.338558
 H        -0.797017         3.012582         0.555481
 H        -0.022427         3.171055         2.033358
 H        -1.588561         2.364250         4.653716
 H        -3.173261         1.198870         4.406387
 H        -2.447970        -0.207189         2.731683
 H         0.399457         0.731475         3.104069
 H        -0.072121        -0.868319         2.328032
