19
Iteration:  2077charge 0 multiplicity 1
 O         0.784251         0.811080         0.184217
 C        -0.290028         1.054416         0.980158
 C        -1.806024         0.950151         0.428224
 C        -1.951248         1.619084         1.837762
 C        -0.564633         2.402366         1.602210
 O        -3.022432         2.163542         2.672687
 C        -2.263025         1.624541         3.890749
 C        -1.566738         0.622484         2.941635
 C        -0.112129         0.310264         2.362852
 H         1.034976        -0.096427         0.365044
 H        -1.737883         1.747483        -0.244297
 H        -2.018883         0.018152         0.028148
 H        -0.709582         3.234519         0.876810
 H        -0.053335         2.598310         2.623179
 H        -1.696081         2.422620         4.324425
 H        -2.932250         1.113580         4.667332
 H        -2.151313        -0.344351         2.925257
 H         0.796499         0.746735         2.741550
 H        -0.142122        -0.809954         2.256955
