19
Iteration:   602charge 0 multiplicity 1
 O         0.771271         0.568801         0.178877
 C        -0.209001         1.031821         0.961872
 C        -1.640929         1.001786         0.419402
 C        -1.918949         1.699260         1.837511
 C        -0.561124         2.419346         1.653279
 O        -2.955165         2.283533         2.623710
 C        -2.360244         1.601797         3.867152
 C        -1.657109         0.635729         2.927583
 C        -0.250091         0.249854         2.422691
 H         1.453334         1.212234         0.172311
 H        -1.761205         1.620198        -0.476658
 H        -2.178589         0.065325         0.304900
 H        -0.846774         3.363509         1.231040
 H         0.123246         2.556248         2.683618
 H        -1.721292         2.300004         4.447699
 H        -3.134855         1.157730         4.539802
 H        -2.441327        -0.108838         2.743163
 H         0.609035         0.580323         2.940053
 H        -0.053486        -0.845657         2.293714
