19
Iteration:   110
 O         0.833206         0.626437         0.218357
 C        -0.184129         1.039267         1.084966
 C        -1.767438         1.113808         0.471075
 C        -1.952606         1.755216         1.882376
 C        -0.360654         2.382232         1.683957
 O        -2.942235         2.330788         2.593024
 C        -2.362890         1.501150         3.813177
 C        -1.804631         0.554042         2.816960
 C        -0.303992         0.181828         2.416570
 H         1.537542         1.364562         0.065081
 H        -1.645863         1.764278        -0.365725
 H        -2.272201         0.200853         0.160967
 H        -0.289698         3.304776         1.118492
 H         0.301298         2.430043         2.634033
 H        -1.506634         1.991830         4.238861
 H        -3.252427         1.258806         4.343420
 H        -2.543834        -0.207248         2.527238
 H         0.553591         0.308711         3.084143
 H        -0.366965        -0.845306         1.985139
