19
Iteration:  3394
 O         0.878330         0.735689         0.184154
 C        -0.192626         1.028179         1.071963
 C        -1.795314         0.909577         0.510365
 C        -2.003645         1.616559         1.838949
 C        -0.644034         2.397544         1.602012
 O        -3.036157         2.231883         2.659341
 C        -2.182558         1.709478         3.789871
 C        -1.575895         0.586303         2.925457
 C        -0.199359         0.214101         2.419677
 H         1.169254         1.449871        -0.481964
 H        -2.215046         1.330356        -0.447826
 H        -2.173325        -0.235830         0.280961
 H        -0.831532         3.161076         0.769796
 H        -0.349630         2.944179         2.508418
 H        -1.476318         2.575056         4.146284
 H        -2.733783         1.295713         4.611619
 H        -2.338427        -0.222853         2.924265
 H         0.603627         0.640006         2.961285
 H        -0.068350        -0.746428         2.137585
