19
Iteration:  1764
 O         0.861522         0.882235         0.203150
 C        -0.215095         0.975010         1.013421
 C        -1.843523         0.898680         0.447502
 C        -1.987973         1.680125         1.805203
 C        -0.670778         2.360523         1.518472
 O        -2.954699         2.296114         2.761129
 C        -2.321330         1.600269         3.818725
 C        -1.545502         0.560241         2.903409
 C        -0.117204         0.281330         2.413093
 H         1.108663        -0.042928        -0.010209
 H        -2.130024         1.525624        -0.432242
 H        -2.218826        -0.190299         0.543412
 H        -0.819303         3.204971         0.767771
 H         0.011695         2.677458         2.361924
 H        -1.604015         2.082032         4.560713
 H        -3.218546         1.298451         4.352377
 H        -2.224431        -0.338842         2.949690
 H         0.719189         0.705332         2.993009
 H         0.222475        -0.818470         2.248347
