19
Iteration:  2888
 O         0.868397         0.836056         0.250315
 C        -0.250833         0.977767         1.036400
 C        -1.815577         0.781193         0.505344
 C        -1.999555         1.663788         1.832385
 C        -0.672858         2.347150         1.575311
 O        -2.943304         2.232225         2.653239
 C        -2.202243         1.696327         3.814417
 C        -1.598812         0.663572         2.928494
 C        -0.173155         0.251087         2.362709
 H         0.823279         1.445358        -0.462312
 H        -1.934990         1.163148        -0.503186
 H        -2.402300        -0.192073         0.506735
 H        -0.731848         3.184389         0.884436
 H        -0.143971         2.653505         2.485430
 H        -1.494261         2.469923         4.241245
 H        -2.940416         1.249706         4.549460
 H        -2.215860        -0.223750         2.828668
 H         0.817928         0.622193         2.799267
 H        -0.082108        -0.816316         2.357494
