19
Iteration:  1815charge 0 multiplicity 1
 O         0.892541         0.967775         0.161257
 C        -0.232779         0.977799         1.048435
 C        -1.693884         0.818842         0.496432
 C        -2.007751         1.612552         1.835005
 C        -0.612399         2.365255         1.564355
 O        -3.046113         2.226189         2.766460
 C        -2.220591         1.692225         3.903663
 C        -1.651014         0.633778         2.850896
 C        -0.213140         0.180072         2.315063
 H         0.935715        -0.013128        -0.106866
 H        -1.735460         1.413963        -0.463190
 H        -2.307280        -0.088985         0.263469
 H        -0.662769         3.132217         0.769652
 H         0.058306         2.907871         2.230906
 H        -1.521877         2.481647         4.122401
 H        -2.827964         1.421982         4.830892
 H        -2.403352        -0.220354         2.934921
 H         0.589564         0.678568         2.824764
 H        -0.151638        -0.956782         2.387782
