19
Iteration:  2213
 O         0.740825         0.812369         0.022624
 C        -0.147671         0.992740         1.075064
 C        -1.725356         0.903790         0.529758
 C        -1.976458         1.624738         1.844491
 C        -0.610778         2.476097         1.686062
 O        -3.071075         2.214403         2.704549
 C        -2.315518         1.624973         3.853002
 C        -1.547250         0.650498         2.863610
 C        -0.117108         0.236930         2.347435
 H         1.443284         0.109742         0.201797
 H        -1.916604         1.612262        -0.304143
 H        -2.176707        -0.075681         0.471814
 H        -0.671203         3.184835         0.844407
 H        -0.018455         2.769511         2.537984
 H        -1.759462         2.503034         4.320610
 H        -2.927450         1.041625         4.509837
 H        -2.150668        -0.268322         2.799457
 H         0.651031         0.631567         3.049091
 H         0.022989        -0.829391         2.335918
