19
Iteration:  4426
 O         0.933173         0.745959         0.276393
 C        -0.296373         0.964380         0.962025
 C        -1.841225         0.892542         0.453303
 C        -1.960960         1.655291         1.836342
 C        -0.659282         2.358759         1.447024
 O        -2.952753         2.250514         2.754204
 C        -2.256515         1.583053         3.822795
 C        -1.615212         0.634979         2.856842
 C        -0.154593         0.335298         2.477590
 H         0.996299         1.428382        -0.430023
 H        -2.029411         1.590851        -0.349935
 H        -2.282165        -0.180342         0.553780
 H        -0.810637         3.053953         0.639855
 H        -0.252922         2.763041         2.371906
 H        -1.515325         2.377277         4.254769
 H        -2.924640         1.113186         4.585063
 H        -2.285479        -0.232853         2.711375
 H         0.560653         0.940626         3.044003
 H         0.208417        -0.675583         2.662783
