19
Iteration:  1422
 O         0.764015         0.810767         0.134866
 C        -0.251971         0.967409         1.102489
 C        -1.748934         0.901297         0.522155
 C        -1.953201         1.731939         1.844671
 C        -0.594563         2.368775         1.442027
 O        -2.957512         2.249714         2.697541
 C        -2.278433         1.572593         3.894507
 C        -1.627139         0.607962         2.828120
 C        -0.198091         0.262414         2.460570
 H         1.514761         0.468487         0.581434
 H        -1.764087         1.447308        -0.420944
 H        -2.261610        -0.065663         0.459073
 H        -0.548513         2.923263         0.485864
 H         0.122532         3.017644         2.095497
 H        -1.498483         2.196694         4.436603
 H        -3.123230         1.375669         4.539199
 H        -2.235687        -0.262708         2.624260
 H         0.402988         0.923346         3.090620
 H         0.245877        -0.719573         2.454546
