19
Iteration:  2187
 O         0.770865         0.844307         0.188005
 C        -0.212275         1.055835         1.045666
 C        -1.796618         0.983811         0.516391
 C        -1.877383         1.656596         1.861736
 C        -0.629917         2.528904         1.468019
 O        -2.943731         2.080586         2.688412
 C        -2.298117         1.594294         3.876021
 C        -1.562029         0.580923         2.897320
 C        -0.208811         0.255140         2.376598
 H         1.222374        -0.038718         0.434030
 H        -2.076520         1.714834        -0.197525
 H        -2.358548         0.069096         0.457947
 H        -0.798871         3.075691         0.528563
 H         0.175870         2.972853         2.210027
 H        -1.581307         2.263849         4.190334
 H        -3.091196         1.297727         4.618415
 H        -2.224765        -0.294107         2.710338
 H         0.637259         0.418816         3.008558
 H        -0.177781        -0.920295         2.315920
