19
Iteration:  4252
 O         0.783890         0.816034         0.198946
 C        -0.236737         0.929428         1.078518
 C        -1.763761         0.851607         0.559692
 C        -1.961829         1.693042         1.849713
 C        -0.603298         2.404743         1.563561
 O        -3.045412         2.204001         2.552347
 C        -2.212065         1.673002         3.824585
 C        -1.548863         0.649498         2.905019
 C        -0.131549         0.161170         2.469698
 H         0.630005         1.536227        -0.531215
 H        -2.072103         1.381455        -0.271995
 H        -2.345603        -0.165702         0.468494
 H        -0.556546         3.281129         0.726294
 H        -0.091290         2.932971         2.476177
 H        -1.464240         2.439899         4.181468
 H        -2.917554         1.494944         4.668243
 H        -2.256937        -0.144750         2.690752
 H         0.715182         0.675981         3.016696
 H        -0.021051        -0.891047         2.346942
