19
Iteration:  4960charge 0 multiplicity 1
 O         0.830546         0.848813         0.145268
 C        -0.223760         0.942814         1.084537
 C        -1.842936         0.933083         0.532431
 C        -1.949990         1.687152         1.841925
 C        -0.647204         2.414037         1.471849
 O        -3.078089         2.133621         2.685603
 C        -2.200971         1.634005         3.778816
 C        -1.554490         0.599486         2.877798
 C        -0.083347         0.321001         2.540225
 H         0.781669        -0.084565        -0.138990
 H        -1.836691         1.538172        -0.314413
 H        -2.367521        -0.040370         0.418301
 H        -0.705396         2.940711         0.525768
 H         0.012465         2.857398         2.150860
 H        -1.583028         2.514805         4.093462
 H        -2.890826         1.414505         4.667104
 H        -2.280921        -0.279907         2.810645
 H         0.522969         0.997662         3.148325
 H         0.276657        -0.735338         2.615726
