19
Iteration:  4196charge 0 multiplicity 1
 O         0.883122         0.773906         0.327205
 C        -0.252822         0.963210         1.035000
 C        -1.812443         0.903923         0.506392
 C        -1.982300         1.643867         1.830749
 C        -0.679770         2.365328         1.476460
 O        -2.991321         2.206134         2.646723
 C        -2.164152         1.679881         3.819290
 C        -1.544237         0.618127         2.913187
 C        -0.210568         0.275322         2.389174
 H         0.787568         1.290111        -0.482733
 H        -1.859604         1.483374        -0.394020
 H        -2.495875         0.015656         0.512637
 H        -0.932115         3.034243         0.607473
 H        -0.085005         2.866121         2.365862
 H        -1.508570         2.477420         4.233885
 H        -2.812572         1.208226         4.488304
 H        -2.278261        -0.158599         2.935116
 H         0.596725         0.660868         3.024430
 H         0.016323        -0.740175         2.289778
