19
Iteration:    85
 O         0.905108         0.735273         0.273035
 C        -0.201943         0.892699         1.100094
 C        -1.655107         1.066381         0.438445
 C        -1.870084         1.795242         1.869160
 C        -0.547255         2.391055         1.711614
 O        -2.873118         2.370420         2.739019
 C        -2.405174         1.604964         3.772771
 C        -1.763558         0.607261         2.715888
 C        -0.358536        -0.034710         2.372497
 H         0.845523         1.272044        -0.602588
 H        -1.679465         1.688581        -0.480613
 H        -2.266343         0.194094         0.159435
 H        -0.458561         3.111029         0.744576
 H        -0.128478         2.913208         2.551744
 H        -1.628119         2.132026         4.370488
 H        -3.243802         1.094081         4.292245
 H        -2.583256        -0.068163         2.495330
 H         0.499854         0.400613         3.067385
 H        -0.302682        -1.084265         2.255806
