19
Iteration:  4598
 O         0.843494         0.703374         0.153043
 C        -0.216210         1.037280         1.008225
 C        -1.764651         0.872258         0.478529
 C        -1.944768         1.646917         1.843759
 C        -0.748157         2.423702         1.640491
 O        -2.942029         2.197963         2.641590
 C        -2.269659         1.687619         3.854255
 C        -1.562320         0.564313         2.951213
 C        -0.145114         0.281905         2.424778
 H         0.869993         1.317142        -0.621224
 H        -1.939996         1.487292        -0.474820
 H        -2.368096        -0.003439         0.205251
 H        -0.969803         3.233447         0.866701
 H        -0.082615         2.902914         2.588263
 H        -1.673700         2.478390         4.276953
 H        -3.175832         1.388791         4.597428
 H        -2.209612        -0.299686         2.818727
 H         0.632848         0.848064         3.068281
 H         0.246685        -0.733026         2.348595
