19
Iteration:  1100charge 0 multiplicity 1
 O         0.695295         0.919549         0.030044
 C        -0.242178         0.967850         1.154654
 C        -1.686888         0.900841         0.532887
 C        -1.850905         1.763164         1.900200
 C        -0.505099         2.354887         1.550258
 O        -2.968726         2.203699         2.614689
 C        -2.312738         1.600988         3.811466
 C        -1.622201         0.637954         2.906805
 C        -0.218638         0.205224         2.505226
 H         0.923569        -0.082741        -0.024133
 H        -1.776488         1.336744        -0.466738
 H        -2.181718        -0.077056         0.576919
 H        -0.603274         3.008264         0.606353
 H         0.186542         2.763216         2.381680
 H        -1.721246         2.395231         4.213842
 H        -3.043301         1.139011         4.555927
 H        -2.468122        -0.089493         2.752777
 H         0.483159         0.593506         3.272397
 H        -0.222067        -0.899209         2.275065
