19
Iteration:  3790charge 0 multiplicity 1
 O         0.839870         0.778014         0.229602
 C        -0.286542         0.955078         1.040015
 C        -1.778228         0.785637         0.577461
 C        -1.976426         1.693642         1.811573
 C        -0.591371         2.459723         1.503191
 O        -2.991704         2.277542         2.639175
 C        -2.291247         1.607279         3.873736
 C        -1.584583         0.643078         2.890407
 C        -0.109735         0.240299         2.398817
 H         0.695404         1.377630        -0.541605
 H        -1.826980         1.321801        -0.433339
 H        -2.086057        -0.189840         0.353297
 H        -0.475057         3.191936         0.727189
 H        -0.032677         2.776393         2.459974
 H        -1.710650         2.404295         4.258087
 H        -3.049726         1.293568         4.588063
 H        -2.188724        -0.292304         2.926337
 H         0.628852         0.788580         3.049540
 H        -0.168707        -0.959888         2.373421
