19
Iteration:  3659charge 0 multiplicity 1
 O         0.841566         0.736046         0.165600
 C        -0.302900         1.032885         1.041348
 C        -1.769824         0.823995         0.537272
 C        -1.995505         1.693420         1.871051
 C        -0.564073         2.403782         1.564911
 O        -3.020144         2.249742         2.649065
 C        -2.295284         1.622908         3.770869
 C        -1.552072         0.667737         2.866161
 C        -0.106690         0.239779         2.495439
 H         0.769336         1.173991        -0.764316
 H        -1.645975         1.424049        -0.411073
 H        -2.395830        -0.068565         0.634687
 H        -0.832278         3.082225         0.718632
 H         0.011651         3.010708         2.438127
 H        -1.745609         2.363969         4.433030
 H        -3.099066         1.102693         4.441376
 H        -2.083131        -0.319436         2.922672
 H         0.770011         0.671759         3.014219
 H         0.082350        -0.810625         2.574696
