19
Iteration:   205charge 0 multiplicity 1
 O         0.964570         0.816394         0.379670
 C        -0.272108         0.988289         1.063983
 C        -1.759786         1.080491         0.342534
 C        -1.965992         1.648172         1.801780
 C        -0.522551         2.278525         1.659203
 O        -2.874531         2.354534         2.725985
 C        -2.337433         1.741864         3.866072
 C        -1.718226         0.534509         2.758653
 C        -0.296932         0.037129         2.324641
 H         0.656868         0.671616        -0.486242
 H        -1.657215         1.763779        -0.559340
 H        -2.247243         0.076352         0.113783
 H        -0.714750         2.992075         0.771843
 H         0.088258         2.665418         2.444698
 H        -1.699090         2.294650         4.641446
 H        -3.170833         1.159212         4.248613
 H        -2.498250        -0.198857         2.890881
 H         0.567448         0.367057         3.058007
 H        -0.341487        -1.007764         2.193865
