19
Iteration:  1676charge 0 multiplicity 1
 O         0.960433         0.991627         0.151855
 C        -0.213669         0.957991         1.021665
 C        -1.911892         0.807593         0.419748
 C        -1.917873         1.575226         1.872288
 C        -0.670688         2.379058         1.484538
 O        -2.931272         2.332299         2.721222
 C        -2.292735         1.650545         3.859439
 C        -1.628312         0.576417         2.971481
 C        -0.177491         0.160529         2.463791
 H         1.103671         0.135066        -0.290481
 H        -2.162818         1.653409        -0.295975
 H        -2.372705        -0.219515         0.128343
 H        -0.983290         3.167553         0.706008
 H        -0.067335         2.893944         2.273501
 H        -1.437301         2.359704         4.284384
 H        -3.097777         1.450791         4.618660
 H        -2.331440        -0.315946         2.823506
 H         0.577173         0.611490         3.071817
 H         0.002532        -0.979030         2.399745
