19
Iteration:  2455charge 0 multiplicity 1
 O         0.861627         0.908236         0.151648
 C        -0.206235         0.957301         1.039207
 C        -1.622589         0.920692         0.418780
 C        -1.930395         1.715598         1.898308
 C        -0.642301         2.422569         1.447929
 O        -3.024999         2.218885         2.720974
 C        -2.347920         1.664278         3.932774
 C        -1.641552         0.628045         3.029055
 C        -0.191311         0.069312         2.367582
 H         0.714252         0.274845        -0.521582
 H        -1.588868         1.486469        -0.457333
 H        -2.277803         0.067078         0.174349
 H        -0.721605         3.153540         0.577164
 H         0.140010         3.046555         2.146640
 H        -1.704756         2.432434         4.291389
 H        -2.923163         1.252036         4.741585
 H        -2.413359        -0.155644         3.132421
 H         0.812402         0.047394         2.965116
 H        -0.495216        -0.945787         2.192182
