19
Iteration:  4600charge 0 multiplicity 1
 O         0.842978         0.686273         0.141388
 C        -0.231723         1.048224         1.012715
 C        -1.748729         0.884262         0.473590
 C        -1.946364         1.648610         1.837261
 C        -0.747078         2.432036         1.656206
 O        -2.942545         2.182850         2.638471
 C        -2.281914         1.686393         3.860536
 C        -1.564050         0.577904         2.934158
 C        -0.133708         0.296077         2.428493
 H         0.827482         1.272966        -0.575236
 H        -1.939032         1.425798        -0.408065
 H        -2.317146        -0.022094         0.138055
 H        -0.954475         3.195220         0.906532
 H        -0.093782         2.871059         2.583566
 H        -1.629148         2.537366         4.320676
 H        -3.127574         1.401471         4.682209
 H        -2.166796        -0.317932         2.839193
 H         0.600089         0.820785         3.054132
 H         0.178650        -0.762559         2.347241
