19
Iteration:  1750charge 0 multiplicity 1
 O         0.897295         0.842056         0.139161
 C        -0.324265         1.029894         0.936635
 C        -1.779926         0.932199         0.536483
 C        -1.972812         1.621410         1.895103
 C        -0.571975         2.410768         1.510093
 O        -2.999955         2.222739         2.679028
 C        -2.326864         1.582561         3.915277
 C        -1.608850         0.615239         2.900485
 C        -0.121522         0.278758         2.444255
 H         0.939183        -0.109122         0.045784
 H        -1.818505         1.553829        -0.430745
 H        -2.349136        -0.002863         0.266690
 H        -0.619259         3.199470         0.788217
 H         0.047330         2.794697         2.314418
 H        -1.771726         2.395184         4.232352
 H        -2.904977         1.103045         4.702736
 H        -2.134832        -0.348036         2.695227
 H         0.693257         0.828582         2.892786
 H        -0.026634        -0.875181         2.542545
