19
Iteration:  1144
 O         0.950514         0.742679         0.250828
 C        -0.229078         1.076834         0.973392
 C        -1.762340         0.935437         0.483290
 C        -2.003204         1.529302         1.827910
 C        -0.748806         2.372416         1.544921
 O        -2.903429         2.273063         2.706139
 C        -2.210907         1.728020         3.869756
 C        -1.584846         0.592891         2.935018
 C        -0.268547         0.241761         2.373464
 H         0.881937         0.404790        -0.700332
 H        -1.902738         1.702356        -0.300157
 H        -2.194284         0.001136         0.109717
 H        -1.045382         3.109312         0.687731
 H        -0.234025         2.802156         2.444374
 H        -1.620655         2.366416         4.436676
 H        -3.005669         1.302140         4.561960
 H        -2.261098        -0.293524         3.093770
 H         0.584327         0.713381         2.864542
 H        -0.315011        -0.859405         2.204842
