19
Iteration:  3476
 O         0.826850         0.733429         0.177622
 C        -0.239886         0.968332         1.024394
 C        -1.709728         0.844587         0.513127
 C        -2.022755         1.611852         1.811130
 C        -0.585372         2.479251         1.557385
 O        -3.001275         2.254307         2.689496
 C        -2.256665         1.639235         3.908391
 C        -1.597799         0.651586         2.852678
 C        -0.205648         0.296655         2.413298
 H         0.775559         0.961608        -0.773669
 H        -1.653720         1.611564        -0.331694
 H        -1.959606        -0.175795         0.377370
 H        -0.776907         3.298062         0.856110
 H        -0.086798         2.948961         2.422918
 H        -1.745643         2.343225         4.455372
 H        -3.017635         0.967487         4.384180
 H        -2.248539        -0.222990         2.940799
 H         0.687021         0.655457         3.094146
 H         0.167230        -0.871084         2.538090
