19
Iteration:   717charge 0 multiplicity 1
 O         0.779846         0.714269         0.175748
 C        -0.242001         1.049187         1.093902
 C        -1.689180         1.006015         0.553000
 C        -1.958569         1.770056         1.866320
 C        -0.478029         2.416162         1.568586
 O        -3.063753         2.192887         2.655196
 C        -2.277297         1.649966         3.825939
 C        -1.635214         0.588777         2.866364
 C        -0.218046         0.146125         2.332777
 H         1.536182         0.556053         0.724089
 H        -1.764853         1.663787        -0.316142
 H        -2.252378         0.076177         0.375005
 H        -0.704976         3.127365         0.630209
 H         0.199211         2.898490         2.226560
 H        -1.664177         2.421525         4.191957
 H        -2.986755         1.360899         4.586543
 H        -2.324217        -0.253882         2.657776
 H         0.631691         0.213329         3.076430
 H        -0.215102        -0.874311         2.069767
