19
Iteration:  1110charge 0 multiplicity 1
 O         0.733313         0.926409         0.124727
 C        -0.256523         0.940142         1.048063
 C        -1.725738         0.878346         0.652304
 C        -1.888160         1.730318         1.812245
 C        -0.479961         2.386582         1.551229
 O        -3.016559         2.220080         2.667618
 C        -2.333834         1.668622         3.812384
 C        -1.601590         0.627798         2.863081
 C        -0.200758         0.159614         2.433827
 H         0.783455        -0.038934        -0.180243
 H        -1.722528         1.380958        -0.305498
 H        -2.242896        -0.072788         0.673624
 H        -0.320850         3.030156         0.660082
 H         0.129647         2.864440         2.402704
 H        -1.696643         2.331259         4.288041
 H        -3.080930         1.272059         4.537947
 H        -2.277978        -0.172044         2.539634
 H         0.660418         0.491433         3.020603
 H         0.072166        -0.897439         2.408627
