19
Iteration:  4782
 O         0.778582         0.814029         0.178930
 C        -0.244467         0.948857         1.039538
 C        -1.686873         0.847562         0.560552
 C        -1.893812         1.683200         1.834559
 C        -0.689640         2.412981         1.528659
 O        -2.983102         2.198243         2.636137
 C        -2.285044         1.639047         3.863138
 C        -1.605476         0.628423         2.899023
 C        -0.132096         0.248784         2.476022
 H         0.511591         1.234192        -0.713723
 H        -1.780415         1.332032        -0.521160
 H        -2.226170        -0.105741         0.721949
 H        -0.807645         3.145058         0.642826
 H        -0.136994         3.039335         2.169045
 H        -1.417907         2.452135         4.079101
 H        -2.991746         1.263494         4.674105
 H        -2.356779        -0.224378         2.714789
 H         0.703177         0.774112         3.066006
 H         0.162965        -0.798395         2.513993
