19
Iteration:   784charge 0 multiplicity 1
 O         0.755371         0.702963         0.150876
 C        -0.233952         1.030947         1.088878
 C        -1.653474         0.921427         0.557845
 C        -1.916233         1.772557         1.854308
 C        -0.552487         2.488471         1.574542
 O        -2.942845         2.293624         2.687538
 C        -2.338989         1.572624         3.838921
 C        -1.680389         0.618337         2.811376
 C        -0.247750         0.119900         2.384472
 H         1.621432         1.098209         0.415479
 H        -1.735916         1.388307        -0.449258
 H        -2.075675        -0.103432         0.608847
 H        -0.697055         3.204089         0.604610
 H         0.120438         2.927293         2.242588
 H        -1.642443         2.102295         4.415273
 H        -3.185512         1.221766         4.417712
 H        -2.472332        -0.149001         2.696594
 H         0.611388         0.188536         3.085371
 H        -0.131661        -0.892501         2.025271
