19
Iteration:  4367charge 0 multiplicity 1
 O         0.866453         0.782485         0.122632
 C        -0.239935         1.029394         1.056474
 C        -1.738071         0.821443         0.512159
 C        -2.004910         1.559649         1.869334
 C        -0.598922         2.384608         1.654489
 O        -3.030750         2.216573         2.600223
 C        -2.258791         1.779404         3.823480
 C        -1.591412         0.654734         2.998451
 C        -0.136044         0.209720         2.380342
 H         0.669767         1.317965        -0.737403
 H        -1.855349         1.391157        -0.460953
 H        -2.126897        -0.064738         0.181245
 H        -0.803098         3.209290         0.952358
 H        -0.212391         2.701116         2.631226
 H        -1.622427         2.669627         4.175126
 H        -2.976190         1.296297         4.694697
 H        -2.290489        -0.174588         3.116823
 H         0.728203         0.512326         2.976978
 H        -0.123968        -0.895513         2.169521
