19
Iteration:  2216
 O         0.755916         0.814240        -0.004135
 C        -0.134147         0.995139         1.081782
 C        -1.726121         0.897630         0.534558
 C        -1.958824         1.617746         1.822194
 C        -0.618920         2.453538         1.701787
 O        -3.067631         2.214248         2.732900
 C        -2.318412         1.636280         3.838414
 C        -1.563618         0.659407         2.838872
 C        -0.112828         0.245673         2.345748
 H         1.405585         0.171038         0.242912
 H        -1.992884         1.618639        -0.276070
 H        -2.272730        -0.156814         0.480393
 H        -0.634549         3.180203         0.898682
 H        -0.079661         2.706936         2.561087
 H        -1.749247         2.504877         4.356393
 H        -3.058802         1.134003         4.559947
 H        -2.070489        -0.329225         2.804651
 H         0.627971         0.688038         3.106677
 H        -0.059259        -0.813869         2.436579
