19
Iteration:  1545
 O         0.870325         0.881112         0.161259
 C        -0.202063         1.035368         1.068959
 C        -1.699531         0.744647         0.460790
 C        -1.975225         1.599278         1.857495
 C        -0.729152         2.420861         1.513539
 O        -2.881854         2.323513         2.706678
 C        -2.265178         1.642048         3.962405
 C        -1.640171         0.602027         2.863224
 C        -0.233545         0.228039         2.405069
 H         0.680621         0.079707        -0.290366
 H        -1.806454         1.482921        -0.358020
 H        -2.169396        -0.257674         0.374125
 H        -0.776629         3.047160         0.467273
 H         0.063878         3.162207         2.011231
 H        -1.637231         2.343719         4.621595
 H        -3.199024         1.260883         4.396346
 H        -2.441638        -0.218710         2.656772
 H         0.429387         0.682762         3.089954
 H        -0.074777        -0.896868         2.373067
