19
Iteration:    21charge 0 multiplicity 1
 O         0.868633         0.798734         0.199598
 C        -0.105431         0.918051         1.192910
 C        -1.801475         1.239243         0.411411
 C        -1.965665         1.760851         1.769690
 C        -0.437566         2.308124         1.763565
 O        -3.024783         2.365388         2.636743
 C        -2.228348         1.546408         3.797182
 C        -1.734692         0.603733         2.773906
 C        -0.339443        -0.030402         2.383248
 H         1.462087         0.032153         0.460193
 H        -1.675773         1.978752        -0.394757
 H        -2.364052         0.375885         0.030086
 H        -0.328579         3.078633         0.865514
 H         0.018558         2.783387         2.619330
 H        -1.635866         2.320903         4.271869
 H        -3.028119         1.070457         4.396876
 H        -2.492324        -0.138175         2.627706
 H         0.381116        -0.025236         3.292364
 H        -0.548532        -1.026441         2.145798
