19
Iteration:  2164charge 0 multiplicity 1
 O         0.987639         0.886414         0.173225
 C        -0.234631         1.009347         1.007224
 C        -1.880255         0.916961         0.499482
 C        -2.027428         1.715549         1.815270
 C        -0.668020         2.355132         1.528900
 O        -3.072512         2.282020         2.752197
 C        -2.169383         1.548246         3.902317
 C        -1.601253         0.586571         2.842266
 C        -0.144312         0.258463         2.361929
 H         0.929366        -0.046071         0.113341
 H        -1.849356         1.429198        -0.444315
 H        -2.362355        -0.106229         0.493545
 H        -0.810337         3.124183         0.733660
 H        -0.063831         2.679100         2.467871
 H        -1.481837         2.234450         4.302839
 H        -2.968212         1.154525         4.591915
 H        -2.187816        -0.361535         2.828988
 H         0.714868         0.630831         2.973619
 H         0.079112        -0.884001         2.442521
