19
Iteration:  2918
 O         0.901679         0.848960         0.199516
 C        -0.172088         1.025790         1.055675
 C        -1.812916         0.808936         0.557464
 C        -1.987871         1.647896         1.893308
 C        -0.643632         2.407902         1.454085
 O        -2.980339         2.214942         2.658090
 C        -2.254543         1.748678         3.827719
 C        -1.674334         0.603061         2.966694
 C        -0.144581         0.111798         2.370438
 H         0.872598         1.659122        -0.423330
 H        -1.876467         1.331448        -0.369566
 H        -2.303376        -0.067201         0.572364
 H        -0.977552         3.052034         0.600911
 H        -0.027724         2.900463         2.238706
 H        -1.589345         2.441079         4.295968
 H        -2.930036         1.484462         4.726652
 H        -2.424384        -0.232192         2.822648
 H         0.770283         0.409065         2.922358
 H        -0.033855        -1.033062         2.191914
