19
Iteration:  3534charge 0 multiplicity 1
 O         0.852154         0.746104         0.196787
 C        -0.241382         0.998049         1.034913
 C        -1.766944         0.860146         0.497206
 C        -1.995642         1.588574         1.809987
 C        -0.604313         2.441344         1.612860
 O        -2.997953         2.209953         2.684299
 C        -2.267821         1.666945         3.838752
 C        -1.594815         0.697274         2.931137
 C        -0.174206         0.271975         2.406846
 H         0.986180         1.371184        -0.568955
 H        -1.985001         1.332770        -0.402600
 H        -2.048358        -0.145351         0.117437
 H        -0.727368         3.002192         0.649575
 H        -0.042452         2.861147         2.428477
 H        -1.576290         2.383739         4.267930
 H        -2.913140         1.338534         4.554250
 H        -2.057567        -0.289511         2.815530
 H         0.729528         0.653790         2.882976
 H        -0.354018        -0.880088         2.386011
