19
Iteration:  2241charge 0 multiplicity 1
 O         0.766788         0.905696         0.024138
 C        -0.267009         0.971228         1.008646
 C        -1.739907         0.883023         0.467689
 C        -1.978212         1.627628         1.881970
 C        -0.598968         2.432624         1.612340
 O        -2.965789         2.270180         2.637767
 C        -2.239122         1.583099         3.878641
 C        -1.638394         0.561803         2.940945
 C        -0.191533         0.231021         2.487297
 H         1.624071         0.631658         0.414614
 H        -1.895924         1.463422        -0.449500
 H        -2.129785        -0.170775         0.416001
 H        -0.701728         3.205238         0.850990
 H         0.230201         2.692810         2.367120
 H        -1.636840         2.411245         4.236070
 H        -2.901023         1.126828         4.679497
 H        -2.284805        -0.330385         2.788226
 H         0.520871         0.784593         3.087008
 H         0.126561        -0.888542         2.482037
