19
Iteration:  4561
 O         0.892270         0.869351         0.266187
 C        -0.257797         0.957120         1.038121
 C        -1.777865         0.730774         0.494532
 C        -1.938330         1.725414         1.811461
 C        -0.663057         2.396895         1.403992
 O        -2.972721         2.248139         2.762799
 C        -2.228119         1.606633         3.888276
 C        -1.597094         0.677742         2.873869
 C        -0.216892         0.206355         2.395837
 H         0.980615         1.695446        -0.342586
 H        -1.852972         1.146675        -0.616024
 H        -2.372170        -0.222701         0.668784
 H        -0.741832         3.054302         0.477869
 H        -0.093357         2.882437         2.154860
 H        -1.646661         2.248517         4.572972
 H        -2.909526         1.243201         4.572637
 H        -2.451455        -0.036589         2.709663
 H         0.631611         0.617054         3.001577
 H        -0.164514        -0.900675         2.271625
