19
Iteration:  1464
 O         0.782837         0.810613         0.086152
 C        -0.156884         1.018983         1.090403
 C        -1.695061         0.896736         0.538641
 C        -1.951580         1.577192         1.862167
 C        -0.674440         2.406479         1.573166
 O        -3.044392         2.300316         2.642641
 C        -2.316147         1.751792         3.880993
 C        -1.611516         0.604082         2.947125
 C        -0.103489         0.134739         2.313687
 H         1.430568         0.106767         0.304582
 H        -1.807079         1.455769        -0.387970
 H        -2.010673        -0.123429         0.338862
 H        -0.873490         3.073797         0.854706
 H        -0.179081         2.864096         2.425906
 H        -1.642861         2.583657         4.371742
 H        -2.959042         1.292084         4.675915
 H        -2.399715        -0.087005         2.954078
 H         0.747880         0.519942         2.929273
 H        -0.078215        -0.915238         2.193420
