19
Iteration:  2481charge 0 multiplicity 1
 O         0.838967         0.785202         0.176501
 C        -0.218886         1.037101         1.029802
 C        -1.880396         0.865230         0.618382
 C        -1.921356         1.678416         1.861421
 C        -0.580076         2.429776         1.712286
 O        -2.912315         2.216126         2.602141
 C        -2.297785         1.656102         3.799812
 C        -1.608662         0.632671         2.810067
 C        -0.138982         0.234767         2.371819
 H         0.591544         0.802155        -0.723822
 H        -2.159862         1.309845        -0.452743
 H        -2.224566        -0.215104         0.595775
 H        -0.740742         3.168064         0.972815
 H        -0.078240         2.764797         2.590690
 H        -1.639815         2.409839         4.314072
 H        -3.005881         1.068917         4.491524
 H        -2.370993        -0.219876         2.836689
 H         0.627465         0.566519         2.993756
 H        -0.125276        -0.861597         2.281366
