19
Iteration:  3715
 O         0.841684         0.724029         0.270450
 C        -0.223856         1.056295         1.116495
 C        -1.830115         0.817214         0.489372
 C        -1.967574         1.673338         1.772425
 C        -0.702687         2.423446         1.530575
 O        -3.007497         2.229246         2.675395
 C        -2.176202         1.658703         3.812855
 C        -1.601877         0.645129         2.865701
 C        -0.107074         0.232517         2.421849
 H         0.977868         1.323262        -0.474811
 H        -1.991978         1.346265        -0.555483
 H        -2.361808        -0.127005         0.445590
 H        -0.483035         3.192663         0.729465
 H        -0.341219         2.895668         2.565099
 H        -1.350648         2.355850         4.111363
 H        -2.908466         1.248576         4.639130
 H        -2.306487        -0.206287         2.710107
 H         0.686749         0.695180         3.070011
 H        -0.017640        -0.841094         2.321057
