19
Iteration:  2855
 O         0.840956         0.643471         0.145901
 C        -0.217672         1.038126         1.058939
 C        -1.616411         0.932427         0.459166
 C        -2.005847         1.641070         1.898357
 C        -0.703253         2.462310         1.496955
 O        -3.028510         2.189668         2.726619
 C        -2.211147         1.618169         3.845756
 C        -1.641336         0.593671         2.969237
 C        -0.187163         0.341378         2.428092
 H         0.843324         1.135747        -0.716310
 H        -1.632670         1.598381        -0.415318
 H        -2.031590        -0.158958         0.287883
 H        -0.971698         3.078402         0.642704
 H        -0.085483         3.113027         2.131400
 H        -1.416090         2.372872         4.112142
 H        -2.896230         1.322889         4.717248
 H        -2.400857        -0.183976         2.883996
 H         0.680376         0.812424         2.984839
 H        -0.157052        -0.736780         2.342476
