19
Iteration:   460charge 0 multiplicity 1
 O         0.858027         0.588841         0.276582
 C        -0.204050         1.004509         1.075382
 C        -1.694841         1.016653         0.451295
 C        -1.907020         1.701635         1.864906
 C        -0.566278         2.477423         1.592640
 O        -2.958277         2.337182         2.669128
 C        -2.366614         1.552868         3.861848
 C        -1.682406         0.562852         2.843557
 C        -0.240218         0.258270         2.352075
 H         1.003240         1.112647        -0.480503
 H        -1.687921         1.703608        -0.403652
 H        -2.260738         0.105386         0.386803
 H        -0.839877         3.128718         0.851895
 H         0.154881         2.774292         2.423330
 H        -1.661952         2.232617         4.384436
 H        -3.201701         1.121157         4.464546
 H        -2.387223        -0.232133         2.550575
 H         0.568653         0.350776         3.062637
 H        -0.204584        -0.786563         1.937178
