19
Iteration:  2974charge 0 multiplicity 1
 O         0.873540         0.675340         0.218757
 C        -0.224666         1.052175         1.052226
 C        -1.877152         0.932582         0.599210
 C        -1.917793         1.660486         1.870618
 C        -0.638895         2.499321         1.525573
 O        -3.008924         2.165305         2.640941
 C        -2.254623         1.618608         3.745723
 C        -1.566980         0.571822         2.856960
 C        -0.112020         0.276546         2.471011
 H         0.722932         1.069542        -0.651182
 H        -2.158396         1.639000        -0.117966
 H        -2.270715        -0.002093         0.518043
 H        -0.683083         3.169345         0.643688
 H        -0.099113         3.143525         2.255908
 H        -1.617698         2.391363         4.111988
 H        -2.894774         1.131370         4.545901
 H        -2.378232        -0.177433         2.736484
 H         0.621144         0.874814         3.090653
 H        -0.027374        -0.818554         2.460268
