19
Iteration:  3541
 O         0.870139         0.763599         0.184742
 C        -0.260349         0.992610         1.022788
 C        -1.735303         0.815021         0.441544
 C        -2.023913         1.592933         1.815278
 C        -0.603724         2.434160         1.581727
 O        -2.989282         2.239350         2.746033
 C        -2.278519         1.713898         3.819659
 C        -1.590061         0.634205         2.887101
 C        -0.190347         0.233086         2.433997
 H         0.849502         1.444776        -0.464476
 H        -1.779415         1.602628        -0.423373
 H        -1.952126        -0.233262         0.318272
 H        -0.739253         3.109361         0.727494
 H        -0.219524         3.062019         2.403165
 H        -1.610210         2.417917         4.346165
 H        -2.998138         1.374313         4.670784
 H        -2.267580        -0.245158         2.963825
 H         0.821930         0.579619         2.844837
 H        -0.074787        -0.936524         2.499582
