19
Iteration:  3881
 O         0.824428         0.822679         0.179694
 C        -0.223719         0.918214         1.046499
 C        -1.742698         0.882585         0.535016
 C        -1.897005         1.655356         1.908924
 C        -0.617546         2.342155         1.517036
 O        -2.993989         2.202700         2.635318
 C        -2.338823         1.779278         3.850052
 C        -1.632535         0.583998         2.931595
 C        -0.144612         0.205170         2.417894
 H         0.968407         1.646675        -0.428203
 H        -1.685127         1.378111        -0.434964
 H        -2.273345        -0.054871         0.343075
 H        -0.887065         2.996743         0.568311
 H        -0.102374         2.953656         2.234996
 H        -1.560594         2.441190         4.096790
 H        -2.940294         1.424637         4.750886
 H        -2.244979        -0.274998         2.782667
 H         0.598390         0.707274         3.044667
 H        -0.058491        -0.813005         2.323757
