19
Iteration:  1145
 O         0.945658         0.741150         0.254377
 C        -0.231071         1.072637         0.977153
 C        -1.753903         0.932888         0.480249
 C        -2.007467         1.525628         1.832966
 C        -0.745823         2.382063         1.540841
 O        -2.900902         2.272030         2.708321
 C        -2.209276         1.726051         3.868678
 C        -1.593498         0.592000         2.931277
 C        -0.266571         0.241379         2.368383
 H         0.896856         0.426385        -0.693150
 H        -1.906587         1.727020        -0.290520
 H        -2.185331        -0.009508         0.093665
 H        -1.062127         3.146245         0.674602
 H        -0.245949         2.811283         2.430318
 H        -1.574736         2.387705         4.429630
 H        -3.016795         1.308399         4.560329
 H        -2.269094        -0.302354         3.121716
 H         0.593996         0.726496         2.867477
 H        -0.307280        -0.884421         2.215861
