19
Iteration:  2647
 O         0.889502         0.643216         0.121622
 C        -0.250547         1.016237         0.918355
 C        -1.824932         0.912438         0.557537
 C        -1.942075         1.595443         1.912231
 C        -0.709517         2.454638         1.429423
 O        -2.970701         2.223491         2.670937
 C        -2.383262         1.652331         3.940500
 C        -1.514416         0.657259         2.993160
 C        -0.102285         0.301543         2.405527
 H         1.480634         1.394523         0.374467
 H        -1.895682         1.753700        -0.260447
 H        -2.380046        -0.074517         0.319727
 H        -0.954050         2.925219         0.473496
 H        -0.083496         3.006262         2.094649
 H        -1.672494         2.318937         4.483179
 H        -3.164265         1.140056         4.466186
 H        -2.136436        -0.289121         2.970196
 H         0.670625         0.839590         2.984510
 H         0.097347        -0.749425         2.331585
