19
Iteration:  1369
 O         0.741262         0.716167         0.096423
 C        -0.227175         0.999685         1.048853
 C        -1.726057         0.929981         0.524304
 C        -1.893102         1.599019         1.874431
 C        -0.569682         2.432842         1.588348
 O        -3.058789         2.214619         2.666192
 C        -2.326622         1.716153         3.778586
 C        -1.573432         0.634018         2.956317
 C        -0.154159         0.236738         2.404383
 H         1.549736         1.073164         0.439902
 H        -1.755707         1.546356        -0.386342
 H        -2.266566        -0.002314         0.346607
 H        -0.769527         3.219057         0.900635
 H         0.021493         2.559142         2.510271
 H        -1.618668         2.394769         4.167917
 H        -2.925545         1.414197         4.554312
 H        -2.240466        -0.220875         2.912810
 H         0.740262         0.579479         2.895589
 H        -0.081643        -0.820969         2.150866
