19
Iteration:  1111
 O         0.739353         0.919502         0.132975
 C        -0.252010         0.941038         1.043001
 C        -1.734078         0.876249         0.658594
 C        -1.893723         1.726249         1.805947
 C        -0.481534         2.391811         1.556349
 O        -3.020186         2.223764         2.670054
 C        -2.334785         1.671212         3.811273
 C        -1.600496         0.630259         2.859257
 C        -0.195868         0.155878         2.426932
 H         0.800680         0.002161        -0.217715
 H        -1.737318         1.389153        -0.311837
 H        -2.262463        -0.084324         0.654458
 H        -0.312364         3.073362         0.631114
 H         0.127930         2.859143         2.406954
 H        -1.673938         2.337094         4.326902
 H        -3.098708         1.284741         4.564425
 H        -2.279132        -0.209819         2.545328
 H         0.698448         0.513155         2.996703
 H         0.073090        -0.939621         2.419962
