19
Iteration:  4573
 O         0.890025         0.869005         0.254039
 C        -0.268628         0.967351         1.043863
 C        -1.835255         0.796196         0.555759
 C        -2.001312         1.680648         1.840772
 C        -0.628744         2.340124         1.451112
 O        -2.926667         2.276181         2.688717
 C        -2.276675         1.587100         3.892286
 C        -1.593728         0.639730         2.846290
 C        -0.167707         0.275958         2.426659
 H         0.846104         1.589794        -0.332245
 H        -2.125691         1.418069        -0.445427
 H        -2.208376        -0.239770         0.468274
 H        -0.778695         2.935991         0.462363
 H         0.111789         2.846269         2.083503
 H        -1.586328         2.318297         4.157096
 H        -2.994191         1.236527         4.589751
 H        -2.120486        -0.346986         2.737584
 H         0.770945         0.520379         3.031759
 H        -0.123794        -0.825804         2.292280
