19
Iteration:  1910charge 0 multiplicity 1
 O         0.810387         0.908539         0.224373
 C        -0.271366         1.048540         1.048441
 C        -1.792477         0.852452         0.495925
 C        -1.956204         1.629588         1.860465
 C        -0.624766         2.419499         1.492156
 O        -2.867636         2.353916         2.735136
 C        -2.378216         1.486314         3.788085
 C        -1.567169         0.544957         2.902897
 C        -0.148934         0.256264         2.399363
 H         1.008359        -0.039607         0.098960
 H        -2.016302         1.381854        -0.428049
 H        -2.273400        -0.072358         0.524582
 H        -0.916198         2.982140         0.552285
 H         0.031613         3.077827         2.115941
 H        -1.589657         1.994974         4.380442
 H        -3.201564         1.108310         4.424302
 H        -2.158307        -0.344789         2.784297
 H         0.693670         0.846016         2.891374
 H         0.147924        -0.753264         2.261955
