19
Iteration:  2755
 O         0.801858         0.752382         0.189603
 C        -0.242281         0.949839         1.105342
 C        -1.823459         0.826780         0.532555
 C        -2.011207         1.686277         1.773519
 C        -0.736588         2.415047         1.563760
 O        -3.028703         2.204884         2.713233
 C        -2.152608         1.718726         3.777479
 C        -1.518122         0.673117         2.796185
 C        -0.118487         0.225688         2.436667
 H         1.450006         1.425058         0.157113
 H        -1.917767         1.458672        -0.425733
 H        -2.119397        -0.238392         0.594472
 H        -0.736089         3.094614         0.677102
 H        -0.368346         2.934875         2.459475
 H        -1.487579         2.409770         4.263182
 H        -2.603411         1.234300         4.716187
 H        -2.216217        -0.203173         2.923146
 H         0.735575         0.738302         2.888231
 H         0.056312        -0.901247         2.274247
