19
Iteration:  4048charge 0 multiplicity 1
 O         0.924004         0.729294         0.300885
 C        -0.259984         0.998837         1.011159
 C        -1.813092         0.821261         0.526760
 C        -1.987147         1.649648         1.843364
 C        -0.664209         2.448335         1.537094
 O        -2.980576         2.193215         2.678356
 C        -2.210377         1.714532         3.813275
 C        -1.573422         0.642131         2.871591
 C        -0.219996         0.234739         2.323380
 H         0.934012         1.496912        -0.399206
 H        -2.028096         1.201706        -0.493951
 H        -2.322338        -0.228338         0.519097
 H        -0.783365         3.367299         0.846682
 H         0.028167         2.938375         2.381669
 H        -1.677263         2.451693         4.322421
 H        -2.857319         1.301481         4.667806
 H        -2.338075        -0.172812         2.920696
 H         0.513345         0.794554         2.954727
 H         0.116386        -0.813303         2.296352
