19
Iteration:  4189
 O         0.893674         0.752184         0.335439
 C        -0.299414         0.993782         1.067502
 C        -1.868798         0.856507         0.517092
 C        -1.976632         1.674455         1.782664
 C        -0.601756         2.406566         1.462967
 O        -2.971041         2.176545         2.690418
 C        -2.172005         1.636540         3.749705
 C        -1.566342         0.610812         2.866078
 C        -0.199001         0.315935         2.430228
 H         0.751844         1.356844        -0.476859
 H        -2.019178         1.581194        -0.283812
 H        -2.495463        -0.093323         0.505053
 H        -0.768432         3.177240         0.676194
 H        -0.120111         2.810173         2.240383
 H        -1.512750         2.396624         4.302751
 H        -2.889762         1.503643         4.716168
 H        -2.236011        -0.281020         2.836957
 H         0.671269         0.762588         3.035367
 H         0.006513        -0.797754         2.324571
