19
Iteration:  1281
 O         0.856742         0.679476         0.167656
 C        -0.301292         0.994056         1.042793
 C        -1.772842         1.022138         0.461978
 C        -1.949639         1.635364         1.819953
 C        -0.636844         2.463157         1.402442
 O        -3.008400         2.177438         2.717535
 C        -2.262224         1.635525         3.918596
 C        -1.599609         0.643625         2.937712
 C        -0.171027         0.252139         2.444593
 H         1.648818         0.889716         0.633249
 H        -1.968045         1.571899        -0.454792
 H        -2.126011        -0.007864         0.419845
 H        -0.786376         3.007962         0.544948
 H         0.020460         2.937021         2.151208
 H        -1.633812         2.400908         4.336248
 H        -2.850436         1.251009         4.664723
 H        -2.245846        -0.197385         2.790919
 H         0.674912         0.678745         2.973489
 H        -0.052946        -0.780013         2.240542
