19
Iteration:  3913
 O         0.872482         0.775854         0.220286
 C        -0.227244         0.994604         1.018893
 C        -1.800888         0.775356         0.515082
 C        -1.965076         1.625056         1.842924
 C        -0.713939         2.370344         1.615939
 O        -2.967642         2.297162         2.610364
 C        -2.207891         1.697267         3.843216
 C        -1.579148         0.615688         2.884442
 C        -0.205614         0.290070         2.390481
 H         1.005417         1.552283        -0.344233
 H        -1.627371         1.134234        -0.514971
 H        -2.285529        -0.170825         0.579904
 H        -0.868478         3.242492         0.892034
 H        -0.323056         2.759149         2.513620
 H        -1.594862         2.361774         4.252593
 H        -2.787867         1.327814         4.716656
 H        -2.239886        -0.235207         2.794670
 H         0.696117         0.442001         3.032964
 H        -0.115258        -0.783865         2.254928
