19
Iteration:  2234charge 0 multiplicity 1
 O         0.812010         0.877375        -0.036337
 C        -0.258231         1.007877         0.961951
 C        -1.775134         0.874939         0.478615
 C        -1.988656         1.673807         1.842657
 C        -0.598750         2.366207         1.650216
 O        -2.973558         2.234007         2.686939
 C        -2.301913         1.620056         3.883457
 C        -1.639916         0.571786         2.928469
 C        -0.142146         0.266764         2.535413
 H         1.569501         0.497131         0.368436
 H        -1.719556         1.349063        -0.507181
 H        -2.136453        -0.098306         0.504695
 H        -0.657078         3.289323         1.011926
 H        -0.100580         2.528957         2.655894
 H        -1.533056         2.307013         4.203561
 H        -2.952220         1.252820         4.626492
 H        -2.369702        -0.194458         2.711041
 H         0.705965         0.703466         3.065243
 H         0.165159        -0.769685         2.372656
