19
Iteration:  2163charge 0 multiplicity 1
 O         0.984217         0.891120         0.177264
 C        -0.230761         1.003960         1.001405
 C        -1.866516         0.910832         0.494363
 C        -2.030231         1.716006         1.810958
 C        -0.682520         2.348379         1.539636
 O        -3.071389         2.290290         2.754345
 C        -2.173848         1.545076         3.904620
 C        -1.595255         0.587513         2.840110
 C        -0.147436         0.264413         2.359412
 H         0.929228        -0.052207         0.079842
 H        -1.871708         1.435717        -0.477889
 H        -2.393962        -0.140735         0.492709
 H        -0.772992         3.136255         0.748553
 H        -0.061441         2.642973         2.438583
 H        -1.421764         2.227285         4.306749
 H        -2.977341         1.172418         4.615066
 H        -2.177258        -0.365602         2.827895
 H         0.750323         0.624219         2.984524
 H         0.048318        -0.863937         2.471771
