19
Iteration:   400
 O         0.889371         0.856901         0.194896
 C        -0.259500         0.906091         1.027207
 C        -1.661547         1.016890         0.496791
 C        -1.870459         1.722754         1.838513
 C        -0.474992         2.393513         1.646011
 O        -2.997542         2.331840         2.647370
 C        -2.293398         1.592218         3.825296
 C        -1.730885         0.587974         2.823348
 C        -0.317222         0.067966         2.451196
 H         0.728801         0.214745        -0.490718
 H        -1.916433         1.579980        -0.398407
 H        -2.260961         0.071870         0.495196
 H        -0.372076         3.229480         0.840001
 H         0.061825         2.752910         2.468928
 H        -1.728508         2.351834         4.341402
 H        -3.056880         1.223689         4.489504
 H        -2.582671        -0.086382         2.708771
 H         0.349992         0.416475         3.231737
 H        -0.251175        -0.996762         2.338524
