19
Iteration:  2452
 O         0.869375         0.917715         0.140883
 C        -0.205412         0.941724         1.032492
 C        -1.642174         0.923499         0.381559
 C        -1.931973         1.703309         1.891614
 C        -0.643863         2.413879         1.461164
 O        -3.024804         2.210726         2.742616
 C        -2.342517         1.676909         3.951946
 C        -1.655734         0.639790         3.000619
 C        -0.198708         0.078553         2.400072
 H         0.840762         0.166068        -0.511700
 H        -1.470216         1.566204        -0.484096
 H        -2.173918         0.030536         0.089009
 H        -0.728696         3.149547         0.589048
 H         0.068549         3.068998         2.083611
 H        -1.656798         2.446092         4.380040
 H        -2.890143         1.264082         4.766618
 H        -2.405740        -0.105724         3.153954
 H         0.802008         0.049841         2.943915
 H        -0.516265        -0.996117         2.227696
