19
Iteration:  4020
 O         0.856690         0.775330         0.157716
 C        -0.216719         0.928629         1.060380
 C        -1.772887         0.847808         0.487566
 C        -1.969638         1.687453         1.858881
 C        -0.628706         2.471364         1.476292
 O        -3.012654         2.261161         2.647191
 C        -2.340447         1.635424         3.861309
 C        -1.559912         0.622212         2.937247
 C        -0.108578         0.185351         2.522083
 H         0.670645         1.586694        -0.404563
 H        -1.803723         1.337556        -0.552792
 H        -2.340378        -0.014823         0.357898
 H        -0.876284         3.089113         0.658033
 H         0.066090         2.979699         2.133333
 H        -1.511570         2.407983         4.293885
 H        -3.060357         1.216339         4.548058
 H        -2.255619        -0.226521         2.986998
 H         0.757347         0.662913         3.043728
 H        -0.048057        -0.946769         2.416626
