19
Iteration:  3073
 O         0.942228         0.766352         0.233994
 C        -0.249401         0.945674         1.012808
 C        -1.754028         0.842487         0.462950
 C        -2.050213         1.681709         1.805775
 C        -0.631627         2.380356         1.529352
 O        -3.101784         2.110612         2.732646
 C        -2.171952         1.726856         3.895990
 C        -1.571190         0.719722         2.914176
 C        -0.237867         0.255662         2.363518
 H         1.016787         1.535871        -0.289602
 H        -1.909149         1.626016        -0.359938
 H        -2.190684        -0.101578         0.205282
 H        -0.525202         3.104447         0.690436
 H        -0.124905         2.891625         2.452086
 H        -1.396309         2.420890         4.157125
 H        -2.774328         1.415824         4.756381
 H        -2.319469        -0.117246         2.985368
 H         0.817674         0.571874         2.754075
 H        -0.112450        -0.799376         2.174608
