19
Iteration:   432charge 0 multiplicity 1
 O         0.915702         0.760664         0.288362
 C        -0.234598         0.968309         1.036457
 C        -1.764210         0.980497         0.424308
 C        -1.916557         1.688336         1.789497
 C        -0.597501         2.428263         1.594940
 O        -2.851917         2.403414         2.745183
 C        -2.377994         1.561808         3.797038
 C        -1.677703         0.559617         2.824851
 C        -0.265580         0.144238         2.451683
 H         0.778969         0.574144        -0.657863
 H        -1.862077         1.602355        -0.479259
 H        -2.353035         0.033979         0.448124
 H        -0.579249         3.199890         0.665982
 H        -0.050012         2.747770         2.431271
 H        -1.780040         2.118241         4.519730
 H        -3.237385         1.079254         4.241312
 H        -2.423591        -0.222349         2.604203
 H         0.531267         0.441505         3.164685
 H        -0.087769        -0.945723         2.309644
