19
Iteration:  1301
 O         0.861314         0.696140         0.187291
 C        -0.205698         1.018263         0.999392
 C        -1.783002         0.819963         0.524473
 C        -1.960572         1.641364         1.818365
 C        -0.743847         2.459766         1.563935
 O        -2.945682         2.328093         2.675625
 C        -2.248240         1.654175         3.864786
 C        -1.566061         0.641340         2.949948
 C        -0.172202         0.210342         2.301573
 H         1.638177         1.158477         0.532451
 H        -1.948298         1.414391        -0.390172
 H        -2.368865        -0.110059         0.345528
 H        -1.151119         3.152957         0.851586
 H        -0.290237         2.807675         2.512944
 H        -1.670932         2.304868         4.438451
 H        -3.023951         1.262025         4.444883
 H        -2.227975        -0.203060         2.881823
 H         0.621169         0.537142         2.980408
 H        -0.130475        -0.835716         2.122713
