19
Iteration:  4014charge 0 multiplicity 1
 O         0.842474         0.761339         0.125688
 C        -0.212852         0.939254         1.085771
 C        -1.739199         0.857376         0.485432
 C        -1.938609         1.681476         1.844726
 C        -0.649471         2.484692         1.485767
 O        -2.981740         2.253264         2.649720
 C        -2.343986         1.668281         3.860497
 C        -1.541800         0.611432         2.946847
 C        -0.163712         0.158836         2.513313
 H         0.622887         1.570222        -0.468773
 H        -1.739752         1.420298        -0.408520
 H        -2.313101        -0.152398         0.424233
 H        -1.003239         3.159280         0.617589
 H         0.021968         2.966631         2.243028
 H        -1.760961         2.390931         4.295224
 H        -3.119159         1.161596         4.527676
 H        -2.193688        -0.272767         2.973928
 H         0.580764         0.772731         3.091994
 H         0.150826        -0.852230         2.431488
