19
Iteration:  2516
 O         0.770736         0.680959         0.145174
 C        -0.239436         0.990618         1.073507
 C        -1.653726         0.971296         0.450579
 C        -2.002696         1.638711         1.854363
 C        -0.632101         2.389660         1.490377
 O        -2.960838         2.218336         2.759763
 C        -2.252665         1.586556         3.868897
 C        -1.669488         0.652232         2.870646
 C        -0.144784         0.287889         2.438827
 H         1.230462         1.476211        -0.033682
 H        -1.726130         1.805102        -0.391922
 H        -2.136176         0.010123         0.118387
 H        -0.932314         2.979832         0.586389
 H        -0.004161         3.117496         2.004875
 H        -1.740632         2.497106         4.381993
 H        -2.911722         1.128657         4.651296
 H        -2.281270        -0.267715         2.770184
 H         0.580854         0.684958         3.168531
 H         0.037347        -0.814850         2.502961
