19
Iteration:  2840
 O         0.803932         0.652776         0.249162
 C        -0.252218         1.078525         1.019846
 C        -1.785285         0.869837         0.567825
 C        -1.909731         1.674012         1.815385
 C        -0.626250         2.520143         1.516664
 O        -3.000228         2.131064         2.663556
 C        -2.230823         1.651988         3.891539
 C        -1.569765         0.620800         2.828673
 C        -0.178624         0.315960         2.413422
 H         0.669062         1.088195        -0.647653
 H        -2.038713         1.333584        -0.378528
 H        -2.183392        -0.061393         0.487387
 H        -0.792207         3.348374         0.760110
 H        -0.029499         2.889370         2.382373
 H        -1.559493         2.456343         4.260621
 H        -2.950238         1.173455         4.665164
 H        -2.179123        -0.312921         2.716935
 H         0.558421         0.736005         3.100416
 H         0.216864        -0.755064         2.215283
