19
Iteration:  2205charge 0 multiplicity 1
 O         0.728027         0.812621         0.080555
 C        -0.254907         1.034687         1.036232
 C        -1.706628         0.964064         0.540479
 C        -1.971420         1.680977         1.895143
 C        -0.593742         2.476739         1.604510
 O        -3.054513         2.181375         2.632138
 C        -2.289957         1.589620         3.862558
 C        -1.530299         0.612888         2.934301
 C        -0.123882         0.205301         2.394764
 H         1.360590         0.062141         0.256944
 H        -1.662923         1.458415        -0.472029
 H        -2.102809        -0.136517         0.332793
 H        -0.735390         3.236771         0.832299
 H        -0.048365         2.936356         2.379448
 H        -1.696692         2.431772         4.389578
 H        -2.873580         0.971584         4.607176
 H        -2.329051        -0.143387         2.836667
 H         0.835547         0.541094         2.929695
 H         0.055468        -0.808306         2.087009
