19
Iteration:  4421
 O         0.929298         0.741655         0.274545
 C        -0.269904         0.982660         0.983524
 C        -1.821129         0.897847         0.461033
 C        -1.988444         1.657109         1.844541
 C        -0.618008         2.346628         1.405251
 O        -2.999797         2.234054         2.751802
 C        -2.229609         1.591548         3.809058
 C        -1.615630         0.620837         2.873554
 C        -0.160334         0.335891         2.484044
 H         0.994960         1.480944        -0.398512
 H        -2.164575         1.460631        -0.444214
 H        -2.344861         0.001952         0.507459
 H        -0.762472         3.263053         0.710634
 H        -0.142128         2.822507         2.285931
 H        -1.596218         2.286755         4.307208
 H        -2.796384         1.229062         4.746217
 H        -2.222024        -0.281002         2.771512
 H         0.569404         0.923035         3.059219
 H        -0.029109        -0.776727         2.505026
