19
Iteration:  3232charge 0 multiplicity 1
 O         0.866939         0.855448         0.234675
 C        -0.244086         1.014049         1.014941
 C        -1.778403         0.781209         0.527384
 C        -1.938452         1.608925         1.854185
 C        -0.705943         2.413002         1.512638
 O        -3.000380         2.275813         2.642422
 C        -2.186943         1.706173         3.859959
 C        -1.603587         0.622063         2.893442
 C        -0.185938         0.135860         2.443536
 H         0.846369         1.460470        -0.487996
 H        -1.803354         1.455310        -0.305457
 H        -2.145011        -0.176652         0.298379
 H        -0.770069         3.263564         0.820882
 H         0.028730         2.716091         2.232543
 H        -1.490158         2.362251         4.416540
 H        -2.980849         1.299252         4.539224
 H        -2.351315        -0.171360         2.714915
 H         0.741013         0.526781         3.047488
 H        -0.281100        -0.992459         2.222664
