19
Iteration:  4356charge 0 multiplicity 1
 O         0.845081         0.833583         0.161067
 C        -0.184388         0.982767         1.010946
 C        -1.748877         0.874092         0.526907
 C        -1.967924         1.549748         1.836315
 C        -0.603477         2.278325         1.604984
 O        -3.031333         2.226386         2.637011
 C        -2.294164         1.803106         3.846357
 C        -1.606129         0.605943         2.929716
 C        -0.160326         0.240765         2.400421
 H         0.581883         1.202770        -0.728395
 H        -2.044552         1.663060        -0.218182
 H        -2.052085        -0.104263         0.515506
 H        -0.630825         3.096763         0.849671
 H        -0.028142         2.635768         2.470132
 H        -1.633474         2.657689         4.249350
 H        -3.073563         1.449671         4.746778
 H        -2.242491        -0.283233         2.974952
 H         0.638654         0.744898         2.948094
 H         0.186871        -0.825337         2.354990
