19
Iteration:   678charge 0 multiplicity 1
 O         0.859499         0.722892         0.147299
 C        -0.225276         0.957387         1.052842
 C        -1.663375         0.931170         0.416477
 C        -2.022880         1.697209         1.836240
 C        -0.698592         2.354669         1.655396
 O        -3.005212         2.398551         2.714253
 C        -2.233956         1.655716         3.821414
 C        -1.636022         0.580906         2.825502
 C        -0.232153         0.163142         2.413086
 H         1.701416         0.950108         0.607746
 H        -1.509067         1.496700        -0.535771
 H        -2.165292        -0.029132         0.148070
 H        -0.629691         3.116875         0.943219
 H        -0.195402         2.741938         2.645170
 H        -1.514319         2.397784         4.304370
 H        -2.886897         1.231922         4.636433
 H        -2.377744        -0.244626         2.816981
 H         0.584130         0.478531         3.060971
 H        -0.197026        -0.943093         2.133131
