19
Iteration:  2981
 O         0.886833         0.696207         0.200289
 C        -0.207007         1.058434         1.079514
 C        -1.855758         0.940864         0.604728
 C        -1.903779         1.705151         1.836522
 C        -0.629138         2.472691         1.468750
 O        -3.033904         2.174872         2.633055
 C        -2.251747         1.561830         3.804239
 C        -1.546481         0.640915         2.882324
 C        -0.159430         0.239738         2.498783
 H         0.661506         1.039204        -0.726826
 H        -2.193710         1.676258        -0.288610
 H        -2.384086        -0.065512         0.399262
 H        -1.015034         3.122145         0.634856
 H        -0.009334         2.970348         2.232653
 H        -1.609547         2.341491         4.243780
 H        -3.056609         1.172652         4.434499
 H        -2.252306        -0.238570         2.854548
 H         0.641227         0.679287         3.025767
 H         0.155934        -0.855792         2.564218
