19
Iteration:  1373charge 0 multiplicity 1
 O         0.742687         0.689726         0.107032
 C        -0.230249         0.999885         1.051583
 C        -1.711525         0.930984         0.526953
 C        -1.895508         1.604767         1.886034
 C        -0.583279         2.431944         1.609769
 O        -3.033877         2.207173         2.660300
 C        -2.330872         1.726217         3.790897
 C        -1.603940         0.634351         2.937781
 C        -0.148955         0.273879         2.352345
 H         1.587962         1.054112         0.502759
 H        -1.723370         1.488552        -0.427386
 H        -2.244675        -0.036573         0.402910
 H        -0.771537         3.253927         0.834757
 H        -0.067171         2.579860         2.528938
 H        -1.657957         2.522563         4.290220
 H        -2.900375         1.256065         4.722767
 H        -2.264153        -0.293599         2.888420
 H         0.800304         0.652285         2.817120
 H        -0.117399        -0.835879         2.093812
