19
Iteration:  3318charge 0 multiplicity 1
 O         0.789709         0.665258         0.237055
 C        -0.262742         1.087610         1.065596
 C        -1.701257         0.947444         0.560257
 C        -1.938748         1.639745         1.844377
 C        -0.635548         2.459445         1.545910
 O        -2.986935         2.250274         2.630011
 C        -2.272851         1.561883         3.848262
 C        -1.567299         0.597632         2.896056
 C        -0.153668         0.316450         2.376627
 H         0.738047         1.066761        -0.630708
 H        -2.070841         1.355106        -0.354829
 H        -2.171296        -0.120882         0.539623
 H        -0.925487         3.039826         0.616283
 H         0.023037         2.925890         2.277432
 H        -1.623024         2.240119         4.376354
 H        -3.030310         1.114753         4.409031
 H        -2.150227        -0.333935         2.778549
 H         0.720590         0.719971         2.926156
 H        -0.029297        -0.759553         2.351133
