19
Iteration:  4002charge 0 multiplicity 1
 O         0.781671         0.733707         0.114705
 C        -0.222225         1.023769         1.051717
 C        -1.671445         0.869210         0.585923
 C        -1.891971         1.594852         1.839579
 C        -0.671362         2.402640         1.552341
 O        -2.922938         2.223684         2.646521
 C        -2.336313         1.692266         3.837714
 C        -1.620935         0.617170         2.919834
 C        -0.166864         0.288762         2.448859
 H         0.824206         1.311867        -0.678396
 H        -1.845144         1.442207        -0.266835
 H        -2.047391        -0.182502         0.422993
 H        -0.704852         3.100145         0.659992
 H        -0.298637         2.928101         2.393847
 H        -1.897355         2.394891         4.448483
 H        -3.160096         1.220621         4.492959
 H        -2.338211        -0.172660         2.723830
 H         0.602821         0.754232         3.142898
 H         0.041495        -0.765007         2.450982
