19
Iteration:  4470charge 0 multiplicity 1
 O         0.840681         0.734602         0.125212
 C        -0.209490         1.039152         1.026330
 C        -1.675259         0.802408         0.556119
 C        -1.925825         1.693548         1.890238
 C        -0.635461         2.507199         1.537677
 O        -2.998970         2.211527         2.670723
 C        -2.362920         1.619688         3.850570
 C        -1.581502         0.680463         2.904911
 C        -0.182525         0.208337         2.422978
 H         0.617588         1.118122        -0.745420
 H        -1.861566         1.465308        -0.295660
 H        -1.979307        -0.349466         0.737721
 H        -0.788223         3.110697         0.680533
 H        -0.008371         3.061459         2.227648
 H        -1.796897         2.361000         4.577940
 H        -3.116840         1.182542         4.567021
 H        -2.241263        -0.178132         2.654582
 H         0.624876         0.600753         3.039104
 H        -0.099855        -0.901921         2.358112
