19
Iteration:  4005
 O         0.792782         0.743082         0.109438
 C        -0.230834         1.001509         1.072630
 C        -1.680162         0.869825         0.573705
 C        -1.878578         1.607571         1.826760
 C        -0.681293         2.412871         1.524176
 O        -2.930317         2.226462         2.655279
 C        -2.338208         1.692100         3.836043
 C        -1.602321         0.615648         2.933237
 C        -0.184448         0.256298         2.459101
 H         0.831493         1.364371        -0.696616
 H        -1.797535         1.547249        -0.313087
 H        -2.081563        -0.213964         0.457753
 H        -0.758061         3.132339         0.638457
 H        -0.242563         3.003868         2.459490
 H        -1.961823         2.453560         4.490706
 H        -3.103323         1.262910         4.488258
 H        -2.279381        -0.239415         2.713836
 H         0.512113         0.692279         3.121993
 H         0.173767        -0.772785         2.497465
