19
Iteration:    61charge 0 multiplicity 1
 O         0.967951         0.747154         0.329700
 C        -0.203045         1.057729         1.082806
 C        -1.716341         1.080296         0.427053
 C        -1.943494         1.683318         1.847632
 C        -0.490531         2.323305         1.700154
 O        -2.902481         2.486074         2.621828
 C        -2.333026         1.531960         3.877377
 C        -1.755921         0.538933         2.784662
 C        -0.408193         0.068577         2.305230
 H         0.798689         0.372931        -0.528181
 H        -1.845627         1.720353        -0.491711
 H        -2.323863         0.185715         0.136893
 H        -0.451680         3.282299         1.054573
 H        -0.011914         2.582413         2.642427
 H        -1.566954         2.165997         4.370901
 H        -3.126206         0.961097         4.412526
 H        -2.435258        -0.350377         2.855643
 H         0.517576         0.134558         2.962319
 H        -0.448917        -0.964108         1.869573
