19
Iteration:  3882
 O         0.820397         0.826637         0.182166
 C        -0.223901         0.921565         1.046659
 C        -1.744406         0.889840         0.531037
 C        -1.906007         1.639887         1.909377
 C        -0.613538         2.337662         1.520384
 O        -2.986892         2.207337         2.640214
 C        -2.346826         1.780067         3.838703
 C        -1.625528         0.587199         2.926247
 C        -0.146694         0.201233         2.421506
 H         0.949730         1.640967        -0.394736
 H        -1.714602         1.356713        -0.426273
 H        -2.255338        -0.110439         0.322115
 H        -0.868993         2.989077         0.548463
 H        -0.107377         2.971554         2.239945
 H        -1.531653         2.481970         4.130173
 H        -2.927527         1.433318         4.775466
 H        -2.238817        -0.272316         2.748958
 H         0.612709         0.682781         3.025025
 H        -0.033589        -0.793787         2.352035
