19
Iteration:   125
 O         0.845663         0.585937         0.173280
 C        -0.220335         0.987760         1.068740
 C        -1.722324         1.209362         0.482892
 C        -1.856390         1.726910         1.805272
 C        -0.461776         2.405676         1.779679
 O        -2.974450         2.305790         2.661165
 C        -2.422882         1.609815         3.769259
 C        -1.662999         0.544110         2.786603
 C        -0.295032         0.098160         2.338694
 H         1.619840         0.973448         0.510641
 H        -1.902320         1.923848        -0.374938
 H        -2.346713         0.314957         0.236832
 H        -0.545935         3.243086         1.087896
 H         0.070618         2.684276         2.710562
 H        -1.855450         2.374888         4.357200
 H        -3.168914         1.234937         4.528129
 H        -2.496029        -0.219058         2.606069
 H         0.426982         0.447419         3.070998
 H        -0.100923        -1.013279         2.335876
