19
Iteration:  1157
 O         0.888114         0.740470         0.320919
 C        -0.302771         0.980323         1.021223
 C        -1.688365         0.888284         0.385138
 C        -2.026579         1.570720         1.879548
 C        -0.696083         2.491712         1.502036
 O        -2.937650         2.284887         2.719530
 C        -2.166475         1.686810         3.858212
 C        -1.682324         0.565608         2.930445
 C        -0.189216         0.222593         2.333307
 H         0.622292         0.880850        -0.566429
 H        -1.904850         1.663289        -0.397704
 H        -2.059461        -0.133893         0.135951
 H        -1.039322         3.380727         0.750674
 H        -0.138209         3.003608         2.295135
 H        -1.356059         2.397337         4.051046
 H        -2.828253         1.477042         4.750186
 H        -2.343089        -0.365001         2.986559
 H         0.640842         0.503118         3.036002
 H         0.160929        -0.869533         2.202481
