19
Iteration:  2272
 O         0.847166         0.771283         0.153315
 C        -0.241820         1.026275         1.096088
 C        -1.782655         0.878730         0.487814
 C        -1.971482         1.710356         1.822327
 C        -0.740931         2.550706         1.543461
 O        -2.960844         2.232759         2.724485
 C        -2.239023         1.591923         3.857362
 C        -1.579608         0.603737         2.876180
 C        -0.154944         0.123551         2.356970
 H         1.591549         1.342366         0.431880
 H        -1.917734         1.260358        -0.547917
 H        -2.259102        -0.202306         0.529454
 H        -0.743804         3.255681         0.750857
 H        -0.081459         2.881133         2.301240
 H        -1.628145         2.488378         4.225682
 H        -2.876802         1.269833         4.762091
 H        -2.303054        -0.261808         2.749547
 H         0.731757         0.247373         3.019482
 H        -0.232968        -0.949229         2.050761
