19
Iteration:  3115
 O         0.785511         0.819154         0.231261
 C        -0.252870         1.003191         1.105341
 C        -1.732124         0.859602         0.572782
 C        -1.917427         1.585582         1.851210
 C        -0.677052         2.409446         1.507818
 O        -2.968179         2.291549         2.617129
 C        -2.227936         1.610738         3.821592
 C        -1.606534         0.565955         2.935866
 C        -0.136705         0.250641         2.366081
 H         0.514795         1.251930        -0.581677
 H        -1.806973         1.560289        -0.414637
 H        -2.102428        -0.135605         0.410500
 H        -0.699297         3.120125         0.718570
 H        -0.178947         2.922073         2.349059
 H        -1.584129         2.361424         4.157963
 H        -3.021569         1.396805         4.591786
 H        -2.140727        -0.328322         2.659575
 H         0.574584         0.690813         3.003212
 H        -0.084323        -0.816121         2.409835
