19
Iteration:  2850
 O         0.837618         0.638447         0.172093
 C        -0.277889         1.046680         1.031205
 C        -1.654990         0.920272         0.501853
 C        -1.968923         1.643627         1.872581
 C        -0.681050         2.502697         1.510735
 O        -3.004149         2.150895         2.692923
 C        -2.205153         1.601053         3.848138
 C        -1.655844         0.619088         2.945493
 C        -0.177116         0.368214         2.423172
 H         0.794768         1.097124        -0.696119
 H        -1.588741         1.534881        -0.397413
 H        -1.985072        -0.062621         0.457245
 H        -0.975618         3.080637         0.597120
 H         0.025361         2.991991         2.218673
 H        -1.509312         2.337350         4.264284
 H        -2.804869         1.357068         4.751937
 H        -2.472419        -0.150854         2.895556
 H         0.625493         0.736687         3.037688
 H        -0.056856        -0.760532         2.239135
