19
Iteration:  4472
 O         0.852512         0.732629         0.119308
 C        -0.213405         1.025340         1.031992
 C        -1.669130         0.798316         0.554238
 C        -1.931235         1.706081         1.902934
 C        -0.622080         2.509717         1.543152
 O        -3.007993         2.196155         2.660959
 C        -2.360703         1.625655         3.877765
 C        -1.583045         0.686017         2.902402
 C        -0.182778         0.211192         2.408398
 H         0.559139         1.154239        -0.771846
 H        -1.838368         1.484179        -0.341047
 H        -2.069189        -0.306102         0.758900
 H        -0.812167         3.188778         0.603907
 H        -0.028809         3.037789         2.264003
 H        -1.787738         2.406024         4.531483
 H        -3.105993         1.182802         4.500108
 H        -2.265439        -0.195676         2.673455
 H         0.613363         0.596544         3.056240
 H        -0.085622        -0.940213         2.393081
