19
Iteration:  3545
 O         0.872728         0.767402         0.188014
 C        -0.255251         0.991328         1.033604
 C        -1.703617         0.829284         0.421744
 C        -2.010453         1.611296         1.820349
 C        -0.640960         2.412218         1.543995
 O        -2.997799         2.259605         2.746237
 C        -2.273685         1.721189         3.853402
 C        -1.594348         0.597807         2.886454
 C        -0.181007         0.211819         2.435482
 H         0.782154         1.540287        -0.477018
 H        -1.737774         1.494844        -0.351171
 H        -2.047048        -0.217721         0.415907
 H        -0.771893         3.212979         0.757600
 H        -0.248241         2.974689         2.369019
 H        -1.611480         2.458683         4.277305
 H        -2.931974         1.355645         4.556765
 H        -2.351516        -0.181400         3.005854
 H         0.716839         0.579542         2.947815
 H         0.052620        -0.935506         2.413218
