19
Iteration:  4591charge 0 multiplicity 1
 O         0.856183         0.783358         0.189084
 C        -0.201825         0.990473         1.011350
 C        -1.827110         0.875550         0.490014
 C        -1.953148         1.591005         1.869700
 C        -0.692307         2.425070         1.543159
 O        -2.958875         2.267526         2.656785
 C        -2.261014         1.656450         3.809222
 C        -1.571012         0.535893         2.977111
 C        -0.144457         0.255601         2.422604
 H         0.939979         1.348292        -0.533293
 H        -1.847970         1.544591        -0.313586
 H        -2.427878        -0.078880         0.571297
 H        -0.914347         3.184647         0.848553
 H        -0.213026         2.889579         2.381927
 H        -1.572027         2.458780         4.329931
 H        -3.140970         1.263493         4.347854
 H        -2.347006        -0.231035         2.841781
 H         0.584185         0.804291         2.948496
 H         0.334839        -0.745712         2.368473
