19
Iteration:    90
 O         0.868316         0.720586         0.272475
 C        -0.233618         0.934319         1.077677
 C        -1.619957         1.068408         0.449906
 C        -1.861147         1.766166         1.851312
 C        -0.464804         2.389725         1.683720
 O        -2.913548         2.398299         2.683866
 C        -2.382122         1.556647         3.834295
 C        -1.763504         0.585268         2.713517
 C        -0.392275         0.018736         2.385878
 H         0.820775         1.421886        -0.360799
 H        -1.644716         1.738342        -0.403916
 H        -2.242837         0.170588         0.339138
 H        -0.464204         2.981039         0.849387
 H         0.031328         2.910540         2.565160
 H        -1.685836         2.171190         4.399540
 H        -3.103622         0.996467         4.413962
 H        -2.477279        -0.241673         2.486895
 H         0.299412         0.437656         3.025425
 H        -0.256263        -1.098987         2.234675
