19
Iteration:  4267charge 0 multiplicity 1
 O         0.836156         0.748975         0.212070
 C        -0.262510         0.973487         1.102406
 C        -1.880112         0.938668         0.535602
 C        -1.907665         1.652251         1.783485
 C        -0.612981         2.404118         1.521926
 O        -2.991609         2.185795         2.688090
 C        -2.294346         1.688761         3.752994
 C        -1.565460         0.581601         2.895934
 C        -0.098215         0.287028         2.477494
 H         0.778185         1.456094        -0.462753
 H        -1.666666         1.484559        -0.458766
 H        -2.489838         0.059658         0.441798
 H        -0.738689         2.986724         0.601068
 H        -0.022741         2.756259         2.279352
 H        -1.561049         2.508050         4.059574
 H        -3.028925         1.193254         4.631083
 H        -2.235151        -0.321973         2.895787
 H         0.734867         0.686607         3.090101
 H         0.110766        -0.862055         2.487724
