19
Iteration:  1357charge 0 multiplicity 1
 O         0.746687         0.807407         0.037203
 C        -0.234877         0.995143         1.030396
 C        -1.763767         0.935555         0.512394
 C        -1.992643         1.688098         1.827160
 C        -0.550286         2.373137         1.592393
 O        -3.041783         2.196509         2.594667
 C        -2.247538         1.703959         3.835480
 C        -1.556369         0.602918         2.955294
 C        -0.157097         0.114846         2.571781
 H         1.646030         1.207751         0.280603
 H        -1.927917         1.699475        -0.248069
 H        -2.196032        -0.035461         0.289049
 H        -0.598818         3.068094         0.795597
 H         0.083788         2.984721         2.286085
 H        -1.638062         2.499443         4.112657
 H        -2.936132         1.511256         4.539275
 H        -2.215579        -0.225260         2.872385
 H         0.582902         0.424734         3.286938
 H        -0.117399        -0.947494         2.569835
