19
Iteration:   558charge 0 multiplicity 1
 O         0.838721         0.776883         0.257704
 C        -0.302799         0.955837         1.071223
 C        -1.759872         0.909396         0.440493
 C        -1.880369         1.700070         1.783492
 C        -0.519894         2.388403         1.548158
 O        -2.955166         2.316582         2.697915
 C        -2.262958         1.619767         3.850633
 C        -1.666380         0.638626         2.759932
 C        -0.308978         0.136499         2.457760
 H         1.447153         1.475893         0.419307
 H        -1.832776         1.567517        -0.422446
 H        -2.288349        -0.036153         0.319868
 H        -0.533087         2.970686         0.644501
 H         0.223785         2.820810         2.388746
 H        -1.529661         2.240113         4.392039
 H        -2.955689         1.218738         4.639991
 H        -2.432922        -0.137952         2.685466
 H         0.495245         0.388155         3.103272
 H        -0.379321        -0.966781         2.398429
