19
Iteration:  3423charge 0 multiplicity 1
 O         0.866905         0.782451         0.263755
 C        -0.272497         0.956372         1.020255
 C        -1.741527         0.864011         0.397048
 C        -1.938001         1.704903         1.839354
 C        -0.649872         2.385041         1.503291
 O        -3.000687         2.172797         2.722351
 C        -2.263300         1.727737         3.873043
 C        -1.570257         0.617158         2.943066
 C        -0.200872         0.205708         2.389314
 H         1.030726         1.436660        -0.442891
 H        -1.942802         1.552617        -0.476426
 H        -2.141236        -0.140785         0.514767
 H        -0.832228         3.127729         0.668640
 H        -0.186405         2.888644         2.365068
 H        -1.603755         2.561392         4.318253
 H        -2.853823         1.393528         4.740175
 H        -2.388940        -0.126307         2.785840
 H         0.734721         0.649542         2.805758
 H        -0.100325        -0.946566         2.166407
