19
Iteration:  4224
 O         0.885080         0.781373         0.150748
 C        -0.167279         1.030288         1.022812
 C        -1.653116         0.763501         0.493034
 C        -1.995574         1.584626         1.841186
 C        -0.664062         2.421599         1.563479
 O        -3.009541         2.246905         2.729403
 C        -2.305432         1.815721         3.831315
 C        -1.580937         0.605849         3.001372
 C        -0.212071         0.208398         2.369402
 H         0.673835         1.412002        -0.623427
 H        -1.996737         1.308726        -0.507252
 H        -2.140407        -0.176994         0.350481
 H        -0.827866         3.217225         0.894668
 H        -0.263556         2.735166         2.494946
 H        -1.484211         2.503691         4.067059
 H        -3.165238         1.455375         4.571874
 H        -2.338650        -0.230568         3.019596
 H         0.680998         0.272158         2.996804
 H        -0.259586        -0.890765         1.989164
