19
Iteration:  3253charge 0 multiplicity 1
 O         0.822231         0.807278         0.245672
 C        -0.167625         1.012102         1.101949
 C        -1.767393         0.850274         0.522341
 C        -1.960595         1.576981         1.804367
 C        -0.667580         2.432166         1.539020
 O        -2.961737         2.266688         2.676134
 C        -2.285654         1.707184         3.800232
 C        -1.553350         0.567390         2.944581
 C        -0.174024         0.171443         2.357388
 H         0.898415         1.481614        -0.526405
 H        -2.059689         1.280172        -0.398373
 H        -2.413732        -0.049742         0.533535
 H        -0.716358         3.167692         0.631298
 H        -0.303715         3.015744         2.379723
 H        -1.542619         2.366203         4.245727
 H        -3.014342         1.403998         4.524286
 H        -2.354103        -0.177280         3.081463
 H         0.811637         0.597812         2.852015
 H        -0.214899        -0.865576         1.897685
