19
Iteration:  1825charge 0 multiplicity 1
 O         0.892509         0.910368         0.163911
 C        -0.233236         0.992354         1.005372
 C        -1.742791         0.897271         0.486059
 C        -2.069597         1.641183         1.801892
 C        -0.656344         2.350486         1.583281
 O        -3.061335         2.177733         2.709560
 C        -2.178632         1.729161         3.900735
 C        -1.597954         0.666196         2.905163
 C        -0.162087         0.188035         2.376479
 H         0.990506         0.002167        -0.249743
 H        -1.789776         1.620713        -0.361223
 H        -2.119545        -0.115951         0.301249
 H        -0.711391         3.187836         0.872091
 H        -0.076677         2.425633         2.534034
 H        -1.448210         2.470035         4.279072
 H        -2.924744         1.414241         4.716429
 H        -2.200078        -0.276399         2.886681
 H         0.670042         0.406370         3.042233
 H        -0.066509        -0.891778         2.097220
