19
Iteration:  4182charge 0 multiplicity 1
 O         0.880195         0.730156         0.316191
 C        -0.289656         1.011783         1.067648
 C        -1.921865         0.835926         0.538454
 C        -1.959221         1.671712         1.777133
 C        -0.596729         2.468609         1.456723
 O        -2.967657         2.179227         2.717006
 C        -2.219452         1.639230         3.802413
 C        -1.636818         0.610887         2.824423
 C        -0.126548         0.311383         2.474390
 H         0.986592         1.322693        -0.512423
 H        -2.161127         1.413976        -0.471216
 H        -2.267753        -0.142348         0.369439
 H        -0.539472         3.197467         0.669863
 H         0.095280         2.883008         2.360134
 H        -1.370408         2.303276         3.955777
 H        -2.868228         1.384080         4.611213
 H        -2.179494        -0.344444         2.637990
 H         0.632023         0.839284         2.964282
 H         0.011272        -0.788269         2.401243
