19
Iteration:  3616charge 0 multiplicity 1
 O         0.869245         0.689606         0.182273
 C        -0.196491         0.999955         1.011006
 C        -1.714878         0.925657         0.494592
 C        -1.968719         1.612892         1.841187
 C        -0.690059         2.426445         1.505484
 O        -3.057656         2.215611         2.706447
 C        -2.257540         1.696819         3.794360
 C        -1.569299         0.609751         2.997110
 C        -0.196297         0.262500         2.423911
 H         0.901128         1.315572        -0.621671
 H        -1.832510         1.760186        -0.311886
 H        -2.074981        -0.099851         0.459455
 H        -0.750097         3.235746         0.755841
 H         0.054245         2.917718         2.290157
 H        -1.630021         2.540603         4.275003
 H        -2.964060         1.100634         4.568306
 H        -2.236136        -0.291045         2.922546
 H         0.641540         0.570335         3.073159
 H        -0.038941        -0.730233         2.361784
