19
Iteration:  1519charge 0 multiplicity 1
 O         0.907358         0.879199         0.255525
 C        -0.289947         0.986515         1.020969
 C        -1.875797         0.874891         0.451487
 C        -2.023306         1.643620         1.821259
 C        -0.690565         2.392915         1.534468
 O        -2.960753         2.312581         2.702165
 C        -2.207956         1.638261         3.785185
 C        -1.564895         0.536782         2.918238
 C        -0.145454         0.231826         2.442166
 H         1.008874        -0.023046         0.007880
 H        -1.834811         1.385342        -0.522764
 H        -2.338335        -0.125308         0.478524
 H        -0.673466         3.118261         0.850492
 H         0.056595         2.762616         2.176836
 H        -1.325302         2.324144         4.136270
 H        -2.986468         1.462818         4.548617
 H        -2.203940        -0.310991         2.737555
 H         0.735546         0.744861         2.927056
 H        -0.073201        -0.836479         2.456068
