19
Iteration:  2642charge 0 multiplicity 1
 O         0.876476         0.641223         0.165442
 C        -0.271713         1.017989         0.964367
 C        -1.823491         0.898021         0.498925
 C        -1.961374         1.609740         1.895374
 C        -0.695081         2.449773         1.455531
 O        -2.985520         2.229747         2.674802
 C        -2.338601         1.653232         3.908586
 C        -1.497673         0.678817         3.008690
 C        -0.114801         0.281003         2.366480
 H         1.448949         1.397844         0.297925
 H        -2.053892         1.537854        -0.291711
 H        -2.284167        -0.042467         0.460366
 H        -0.867307         3.097914         0.568773
 H         0.004330         3.046658         2.117128
 H        -1.935590         2.439510         4.574305
 H        -3.052779         0.968764         4.465443
 H        -1.998084        -0.286387         3.025474
 H         0.725780         0.860872         2.770842
 H         0.127340        -0.807352         2.192509
