19
Iteration:   686
 O         0.867544         0.678843         0.121666
 C        -0.217745         0.972094         1.055088
 C        -1.613214         0.905151         0.439532
 C        -2.065340         1.735355         1.775292
 C        -0.721784         2.485100         1.712710
 O        -2.962700         2.335948         2.685070
 C        -2.204577         1.647888         3.852255
 C        -1.636717         0.583722         2.886684
 C        -0.264001         0.138519         2.372065
 H         1.694722         0.865895         0.684514
 H        -1.663242         1.689634        -0.395791
 H        -2.180932        -0.067054         0.185609
 H        -0.685216         3.247735         0.853318
 H        -0.417265         2.903271         2.529438
 H        -1.513262         2.365546         4.310772
 H        -3.010653         1.303881         4.528588
 H        -2.400044        -0.257712         2.800378
 H         0.679979         0.282237         3.045430
 H        -0.363957        -0.964329         2.222256
