19
Iteration:  1823
 O         0.895734         0.922532         0.162695
 C        -0.229260         0.991944         1.015618
 C        -1.725294         0.874529         0.495078
 C        -2.075121         1.638250         1.796439
 C        -0.651897         2.347919         1.573915
 O        -3.059283         2.185220         2.722325
 C        -2.189222         1.720139         3.916043
 C        -1.617215         0.667924         2.889314
 C        -0.170650         0.173410         2.353942
 H         0.975461        -0.002800        -0.223547
 H        -1.765481         1.562039        -0.340722
 H        -2.160147        -0.058004         0.271518
 H        -0.700400         3.196240         0.872298
 H         0.035455         2.494145         2.491391
 H        -1.415857         2.494132         4.267544
 H        -2.919835         1.449777         4.739759
 H        -2.182450        -0.246091         2.893819
 H         0.670610         0.499436         3.013979
 H        -0.082791        -0.855309         2.170703
