19
Iteration:  4033charge 0 multiplicity 1
 O         0.872963         0.794405         0.243370
 C        -0.253036         0.978500         1.043718
 C        -1.818465         0.853938         0.559946
 C        -1.955617         1.656957         1.810321
 C        -0.606073         2.335417         1.474906
 O        -3.034347         2.234944         2.681785
 C        -2.264252         1.644747         3.834465
 C        -1.617376         0.666846         2.887232
 C        -0.119029         0.290503         2.419252
 H         1.060568         1.445660        -0.456688
 H        -1.927431         1.458136        -0.298368
 H        -2.234605        -0.130924         0.574615
 H        -0.623064         2.920449         0.575421
 H        -0.114647         2.746395         2.248720
 H        -1.564866         2.467309         4.324400
 H        -2.986028         1.282029         4.640793
 H        -2.197704        -0.214590         2.674606
 H         0.860462         0.458189         3.014262
 H        -0.148138        -0.807035         2.347129
