19
Iteration:   968charge 0 multiplicity 1
 O         0.861201         0.772336         0.189482
 C        -0.177890         1.006133         1.064741
 C        -1.812527         0.992101         0.562106
 C        -1.965762         1.663929         1.905466
 C        -0.575831         2.353388         1.600316
 O        -2.998578         2.340564         2.618007
 C        -2.321612         1.641243         3.801990
 C        -1.590608         0.572970         2.927481
 C        -0.182139         0.081457         2.348739
 H         0.703020         1.321819        -0.647217
 H        -1.844829         1.719345        -0.228792
 H        -2.380578         0.096591         0.374693
 H        -0.474348         3.076909         0.879062
 H         0.132089         2.698945         2.358048
 H        -1.621586         2.364606         4.346570
 H        -3.241916         1.339546         4.367721
 H        -2.341114        -0.222820         2.765627
 H         0.784122         0.275050         2.929891
 H        -0.060484        -0.992044         2.210249
