19
Iteration:   123
 O         0.848297         0.581553         0.176648
 C        -0.215584         1.009682         1.058493
 C        -1.744203         1.192913         0.483575
 C        -1.872924         1.712462         1.817563
 C        -0.432170         2.414812         1.772255
 O        -2.968342         2.304792         2.657915
 C        -2.425909         1.614164         3.765870
 C        -1.685394         0.541026         2.773130
 C        -0.296776         0.113396         2.362348
 H         1.635976         1.046244         0.468298
 H        -1.877431         1.915109        -0.333225
 H        -2.379947         0.318703         0.263617
 H        -0.458166         3.211561         1.118619
 H         0.082133         2.701004         2.761426
 H        -1.814222         2.306544         4.352429
 H        -3.133580         1.242276         4.517842
 H        -2.441955        -0.282125         2.578919
 H         0.437883         0.412417         3.039006
 H        -0.116267        -1.020320         2.275522
