19
Iteration:  3818charge 0 multiplicity 1
 O         0.883204         0.679429         0.198711
 C        -0.208115         0.994796         1.014135
 C        -1.775360         0.950838         0.523920
 C        -1.926770         1.667725         1.860021
 C        -0.666569         2.444204         1.509202
 O        -3.017345         2.253505         2.651413
 C        -2.242526         1.543364         3.831972
 C        -1.614620         0.611763         2.882510
 C        -0.179209         0.302272         2.492544
 H         0.829431         1.045982        -0.766305
 H        -1.949361         1.624415        -0.270686
 H        -2.088872        -0.152265         0.263208
 H        -0.973510         3.027952         0.571910
 H        -0.181106         3.069209         2.227721
 H        -1.565991         2.378280         4.277113
 H        -2.896032         1.300817         4.715614
 H        -2.257088        -0.270586         2.937346
 H         0.508996         0.779367         3.170786
 H         0.019223        -0.696372         2.702682
