19
Iteration:   178charge 0 multiplicity 1
 O         0.989384         0.853215         0.247159
 C        -0.283415         0.939112         1.067240
 C        -1.743397         1.011539         0.542970
 C        -1.898385         1.797008         1.831279
 C        -0.538608         2.392002         1.720123
 O        -2.911942         2.373404         2.622573
 C        -2.290414         1.569811         3.839868
 C        -1.780009         0.522082         2.695503
 C        -0.335620         0.054882         2.367030
 H         0.941404        -0.032840        -0.040645
 H        -1.767114         1.572903        -0.417766
 H        -2.399420         0.155661         0.444964
 H        -0.575151         3.070094         0.907253
 H         0.060343         2.787947         2.591876
 H        -1.476686         2.148636         4.234762
 H        -3.087971         1.322536         4.554585
 H        -2.644201        -0.138585         2.481635
 H         0.384954         0.361181         3.048154
 H        -0.290398        -1.079357         2.312617
