19
Iteration:  2532charge 0 multiplicity 1
 O         0.824775         0.705030         0.139116
 C        -0.218190         1.066906         1.010616
 C        -1.759784         0.889719         0.530969
 C        -1.893524         1.709804         1.858108
 C        -0.635697         2.555348         1.418953
 O        -2.989478         2.178755         2.707015
 C        -2.274321         1.616135         3.927073
 C        -1.593843         0.612508         2.923043
 C        -0.266929         0.197059         2.412054
 H         1.661690         1.138626         0.388333
 H        -1.839049         1.342409        -0.391695
 H        -2.145017        -0.117765         0.539570
 H        -0.875737         3.096826         0.498073
 H        -0.069791         2.964882         2.322517
 H        -1.558889         2.234414         4.397029
 H        -3.011440         1.191195         4.596491
 H        -2.316302        -0.199816         2.779276
 H         0.624549         0.508508         3.033402
 H        -0.192211        -0.851400         2.128818
