19
Iteration:  3272
 O         0.916087         0.739566         0.177439
 C        -0.311455         0.979102         1.003644
 C        -1.765164         0.885507         0.545204
 C        -2.007932         1.661468         1.866859
 C        -0.597597         2.397961         1.570618
 O        -3.012452         2.211030         2.667275
 C        -2.254379         1.654048         3.892513
 C        -1.592937         0.655050         2.857935
 C        -0.163302         0.267403         2.404411
 H         0.991022         1.427637        -0.553751
 H        -1.921516         1.344279        -0.441092
 H        -1.976643        -0.253623         0.240104
 H        -0.979585         3.180350         0.825924
 H         0.064461         2.763883         2.397763
 H        -1.631774         2.536428         4.096817
 H        -2.832772         1.305629         4.706748
 H        -2.375552        -0.158494         2.879358
 H         0.570401         0.626855         3.109447
 H        -0.113493        -0.774635         2.333647
