19
Iteration:  2263charge 0 multiplicity 1
 O         0.757678         0.836616         0.168301
 C        -0.241418         1.021545         1.100905
 C        -1.756151         0.930928         0.560703
 C        -1.954386         1.669178         1.845122
 C        -0.692630         2.421372         1.475251
 O        -2.906623         2.199694         2.711205
 C        -2.261292         1.645296         3.818284
 C        -1.607036         0.582097         2.890888
 C        -0.162432         0.169949         2.384308
 H         1.593341         1.159941         0.545459
 H        -1.693325         1.464785        -0.408806
 H        -2.189887        -0.086692         0.441984
 H        -0.820220         3.035784         0.575037
 H        -0.260399         3.055530         2.332798
 H        -1.488550         2.282579         4.282592
 H        -3.001150         1.257730         4.600489
 H        -2.326015        -0.217014         2.611062
 H         0.733264         0.284170         2.969631
 H        -0.125476        -0.882043         1.875601
