19
Iteration:  1362charge 0 multiplicity 1
 O         0.746679         0.768905         0.067859
 C        -0.242507         1.004796         1.033845
 C        -1.750161         0.925537         0.518083
 C        -1.945648         1.647297         1.826865
 C        -0.550714         2.383953         1.591647
 O        -3.070422         2.213496         2.638675
 C        -2.281194         1.694206         3.791733
 C        -1.525807         0.623667         2.972029
 C        -0.165045         0.167800         2.499363
 H         1.594168         1.120331         0.304524
 H        -1.878213         1.711063        -0.258198
 H        -2.241126        -0.038069         0.281577
 H        -0.670221         3.295835         0.880921
 H         0.104077         2.844390         2.327182
 H        -1.467363         2.479918         4.072570
 H        -3.183979         1.505849         4.561255
 H        -2.263911        -0.248116         2.902720
 H         0.674453         0.430957         3.209502
 H        -0.024916        -0.973781         2.405481
