19
Iteration:  1089
 O         0.701920         0.832529        -0.004600
 C        -0.157652         0.994534         1.077548
 C        -1.715507         0.923281         0.509203
 C        -1.908417         1.639459         1.832982
 C        -0.554858         2.446606         1.605761
 O        -2.953002         2.258699         2.603557
 C        -2.309771         1.606682         3.885682
 C        -1.655309         0.626502         2.905710
 C        -0.224371         0.203197         2.569373
 H         1.321330         0.070554        -0.110933
 H        -1.684818         1.552081        -0.390016
 H        -2.208864        -0.035109         0.315216
 H        -0.769394         3.222237         0.794107
 H         0.151730         2.951485         2.381909
 H        -1.661158         2.273435         4.448752
 H        -3.118941         1.237131         4.597946
 H        -2.250484        -0.319800         2.812740
 H         0.683391         0.462591         3.168152
 H        -0.200942        -0.930314         2.557746
