19
Iteration:  4097charge 0 multiplicity 1
 O         0.839890         0.805230         0.194319
 C        -0.264120         0.995448         1.027429
 C        -1.746768         0.833230         0.482376
 C        -1.937304         1.680293         1.801403
 C        -0.612426         2.407921         1.556441
 O        -3.034438         2.177935         2.647610
 C        -2.242558         1.713874         3.851187
 C        -1.596765         0.624244         2.891489
 C        -0.187528         0.215412         2.518370
 H         0.636231         1.090375        -0.660362
 H        -1.929442         1.344384        -0.499756
 H        -2.169076        -0.156342         0.473557
 H        -0.706102         3.145747         0.788826
 H         0.004608         2.906260         2.349479
 H        -1.476203         2.452459         4.274487
 H        -2.775810         1.509559         4.729077
 H        -2.260387        -0.242095         2.958354
 H         0.707856         0.616213         3.009313
 H         0.066635        -0.826346         2.365002
