19
Iteration:  4457charge 0 multiplicity 1
 O         0.802280         0.734110         0.207622
 C        -0.224926         1.093038         1.050842
 C        -1.714407         0.848196         0.555386
 C        -1.921506         1.621757         1.818440
 C        -0.668141         2.442088         1.464489
 O        -2.936150         2.330563         2.705199
 C        -2.357957         1.560068         3.812535
 C        -1.585214         0.587595         2.915809
 C        -0.131246         0.286001         2.465735
 H         0.703503         1.150584        -0.677999
 H        -1.989628         1.240867        -0.376152
 H        -1.958979        -0.241884         0.393253
 H        -0.898599         3.029477         0.706090
 H        -0.181396         2.945991         2.346815
 H        -1.644176         2.288098         4.321145
 H        -3.201988         1.000787         4.392680
 H        -2.216463        -0.271990         2.846352
 H         0.765928         0.501064         3.062998
 H        -0.053251        -0.719089         2.189200
