19
Iteration:  2023charge 0 multiplicity 1
 O         0.816245         0.961215         0.224266
 C        -0.303412         0.933024         0.988322
 C        -1.713213         0.859573         0.479419
 C        -1.988781         1.680668         1.808509
 C        -0.603182         2.331154         1.500863
 O        -2.934914         2.277681         2.780980
 C        -2.301542         1.593286         3.881372
 C        -1.632963         0.631093         2.833567
 C        -0.156109         0.277863         2.401186
 H         1.066778         0.133078        -0.131433
 H        -1.861504         1.227200        -0.495243
 H        -2.103966        -0.129728         0.562152
 H        -0.706571         3.099015         0.681973
 H         0.090997         2.847063         2.280356
 H        -1.881003         2.464377         4.461919
 H        -2.967708         0.847115         4.469338
 H        -2.022959        -0.417049         2.916549
 H         0.705913         0.514313         2.927789
 H        -0.094691        -0.853097         2.327925
