19
Iteration:   154charge 0 multiplicity 1
 O         0.815273         0.747279         0.155261
 C        -0.198311         1.027621         1.144789
 C        -1.650479         1.062153         0.413261
 C        -1.902178         1.707803         1.724021
 C        -0.419798         2.411450         1.690162
 O        -2.991379         2.334731         2.709592
 C        -2.387485         1.563789         3.841771
 C        -1.710812         0.567605         2.825689
 C        -0.332781         0.131981         2.388095
 H         1.373407         0.023481         0.560314
 H        -1.615127         1.823478        -0.320304
 H        -2.133700         0.171482        -0.006306
 H        -0.363556         3.161817         0.969445
 H         0.104475         2.662696         2.683291
 H        -1.690472         2.257042         4.281793
 H        -3.134497         1.241485         4.552354
 H        -2.465132        -0.208446         2.746551
 H         0.504693         0.028667         3.068502
 H        -0.603214        -0.914111         2.090905
