19
Iteration:   852charge 0 multiplicity 1
 O         0.810731         0.764793         0.116662
 C        -0.179860         1.061732         1.123060
 C        -1.684166         0.918965         0.477769
 C        -1.948959         1.667081         1.813371
 C        -0.625235         2.399185         1.690491
 O        -2.959579         2.320303         2.627782
 C        -2.200064         1.700945         3.889188
 C        -1.724101         0.602625         2.849532
 C        -0.257571         0.026940         2.387845
 H         1.382057         1.582902        -0.110144
 H        -1.774001         1.395020        -0.556298
 H        -2.042362        -0.158723         0.616585
 H        -0.740750         3.245025         0.824403
 H        -0.094603         2.821168         2.576595
 H        -1.563178         2.390523         4.356889
 H        -2.922669         1.213268         4.532904
 H        -2.672864        -0.009931         2.666143
 H         0.630878        -0.068179         3.042177
 H        -0.442479        -1.081266         2.164033
