19
Iteration:  1185
 O         0.850243         0.761908         0.183136
 C        -0.202559         0.923559         1.078342
 C        -1.811187         0.849867         0.598692
 C        -2.030789         1.688542         1.764510
 C        -0.599637         2.448596         1.526750
 O        -2.983588         2.192982         2.720085
 C        -2.146513         1.656283         3.776269
 C        -1.637678         0.716683         2.790433
 C        -0.209181         0.204112         2.442187
 H         1.053166         1.688541         0.044167
 H        -1.975646         1.325451        -0.360138
 H        -2.266110        -0.134701         0.590331
 H        -0.658174         3.111960         0.725068
 H        -0.150679         2.806536         2.483427
 H        -1.459146         2.458640         4.245254
 H        -2.681242         1.188363         4.637633
 H        -2.342443        -0.112279         2.785761
 H         0.484330         0.622705         3.180213
 H        -0.280526        -0.871402         2.288782
