19
Iteration:  4105charge 0 multiplicity 1
 O         0.850847         0.807158         0.174116
 C        -0.247416         0.992120         1.026897
 C        -1.770819         0.821172         0.522115
 C        -1.908428         1.703410         1.863841
 C        -0.621293         2.373019         1.526707
 O        -3.029700         2.197038         2.624439
 C        -2.274175         1.640442         3.812776
 C        -1.576842         0.670000         2.966494
 C        -0.154053         0.255670         2.467519
 H         0.603681         1.120736        -0.667280
 H        -2.068594         1.465338        -0.429481
 H        -2.198798        -0.160463         0.671208
 H        -0.681772         3.170745         0.757372
 H        -0.052067         2.524495         2.636632
 H        -1.557239         2.442858         3.932515
 H        -2.902814         1.554078         4.702783
 H        -2.236194        -0.156354         2.593179
 H         0.627863         0.598898         3.091761
 H        -0.095295        -0.880133         2.500788
