19
Iteration:  1356
 O         0.746673         0.815220         0.030586
 C        -0.230618         0.991368         1.031639
 C        -1.765243         0.939837         0.512332
 C        -1.997896         1.692525         1.831678
 C        -0.552519         2.373219         1.591728
 O        -3.033986         2.192467         2.585686
 C        -2.238986         1.706359         3.838012
 C        -1.567694         0.600467         2.949572
 C        -0.157497         0.105978         2.584418
 H         1.639476         1.224135         0.284570
 H        -1.927770         1.681022        -0.266876
 H        -2.193724        -0.036508         0.294646
 H        -0.596678         3.020090         0.743994
 H         0.081203         2.990560         2.309871
 H        -1.651143         2.534191         4.140232
 H        -2.924537         1.483496         4.598952
 H        -2.218451        -0.226157         2.867128
 H         0.588809         0.446149         3.297697
 H        -0.144113        -0.943089         2.589198
