19
Iteration:  1095charge 0 multiplicity 1
 O         0.691577         0.873006         0.006149
 C        -0.194238         0.992233         1.148393
 C        -1.699254         0.909335         0.502145
 C        -1.866633         1.723013         1.890927
 C        -0.526608         2.402281         1.573385
 O        -2.953900         2.220322         2.594463
 C        -2.309184         1.578871         3.839849
 C        -1.653180         0.641471         2.908318
 C        -0.220140         0.202212         2.544199
 H         1.120559         0.061044        -0.130189
 H        -1.772131         1.391626        -0.484245
 H        -2.203357        -0.067434         0.400727
 H        -0.729998         3.051431         0.772713
 H         0.158766         2.771159         2.281343
 H        -1.697470         2.364437         4.400254
 H        -2.988385         1.235385         4.565400
 H        -2.350805        -0.175548         2.860968
 H         0.548402         0.561333         3.214997
 H        -0.320318        -0.851563         2.417657
