19
Iteration:  1060
 O         0.817681         0.697579         0.176975
 C        -0.240598         0.992230         1.002706
 C        -1.789687         0.948515         0.446782
 C        -1.969550         1.673135         1.867225
 C        -0.617634         2.375442         1.664865
 O        -2.964151         2.303460         2.682668
 C        -2.300679         1.621274         3.886794
 C        -1.620927         0.614456         2.885249
 C        -0.173531         0.298631         2.299273
 H         1.658056         0.515921         0.537288
 H        -1.819135         1.603709        -0.466248
 H        -2.246847        -0.074126         0.375247
 H        -0.869130         3.212511         0.908644
 H         0.115209         2.675726         2.306664
 H        -1.538339         2.358486         4.379424
 H        -3.095636         1.169828         4.522705
 H        -2.174100        -0.366870         2.799630
 H         0.769373         0.649669         2.779356
 H         0.026830        -0.823023         2.267340
