19
Iteration:   483
 O         0.860958         0.650758         0.171101
 C        -0.229466         0.889710         1.087471
 C        -1.773612         1.033781         0.444052
 C        -1.955273         1.793542         1.816550
 C        -0.407464         2.431716         1.637369
 O        -3.089084         2.218218         2.675318
 C        -2.281452         1.604303         3.839494
 C        -1.665293         0.701051         2.794343
 C        -0.238401         0.135445         2.457050
 H         1.217662         1.559979        -0.133623
 H        -1.813731         1.727549        -0.377166
 H        -2.128424         0.050148         0.335803
 H        -0.416400         3.139611         0.938363
 H         0.012208         2.634130         2.650115
 H        -1.664642         2.452054         4.105423
 H        -2.952467         1.196459         4.628337
 H        -2.458577        -0.055683         2.630907
 H         0.539179         0.535238         3.073049
 H        -0.138519        -1.006233         2.489511
