19
Iteration:   669charge 0 multiplicity 1
 O         0.812707         0.788422         0.195120
 C        -0.236731         0.955828         1.088126
 C        -1.728676         0.957745         0.404504
 C        -1.929889         1.619296         1.804278
 C        -0.574755         2.287996         1.582716
 O        -2.991431         2.371050         2.741896
 C        -2.276465         1.664750         3.803587
 C        -1.726087         0.629715         2.827785
 C        -0.219490         0.172862         2.396493
 H         1.682598         1.054621         0.588408
 H        -1.726321         1.544174        -0.497285
 H        -2.142570        -0.015080         0.325206
 H        -0.703367         3.083499         0.908850
 H         0.174125         2.510750         2.571990
 H        -1.464200         2.322673         4.219453
 H        -2.948106         1.289240         4.596981
 H        -2.323772        -0.257179         2.754851
 H         0.485305         0.586858         3.058701
 H         0.060145        -0.906469         2.387392
