19
Iteration:  1832charge 0 multiplicity 1
 O         0.874464         0.874071         0.167943
 C        -0.256679         1.002208         0.996088
 C        -1.813963         0.968684         0.442607
 C        -1.980296         1.617980         1.846568
 C        -0.679074         2.364496         1.625609
 O        -3.057415         2.161405         2.663933
 C        -2.176037         1.729993         3.811701
 C        -1.525064         0.615926         2.948584
 C        -0.153092         0.217105         2.431949
 H         0.943946        -0.019720        -0.298295
 H        -1.935180         1.597389        -0.418378
 H        -2.081069        -0.065260         0.338477
 H        -0.670821         3.221683         0.944509
 H        -0.385275         2.613169         2.698815
 H        -1.551946         2.570482         4.275069
 H        -2.788136         1.263880         4.572765
 H        -2.257530        -0.156311         2.969878
 H         0.775531         0.229050         3.078534
 H        -0.174189        -0.792287         2.091111
