19
Iteration:  1617
 O         0.883852         0.768916         0.062796
 C        -0.218608         1.042094         1.067146
 C        -1.737206         0.943208         0.534157
 C        -2.067141         1.622799         1.883905
 C        -0.673270         2.385904         1.588026
 O        -3.030497         2.200226         2.678453
 C        -2.191985         1.669740         3.870028
 C        -1.591509         0.648196         2.903778
 C        -0.207402         0.261307         2.363667
 H         1.070877        -0.139721         0.229133
 H        -1.615755         1.667779        -0.335975
 H        -1.979923        -0.103068         0.164932
 H        -0.904109         3.076200         0.868804
 H        -0.101321         2.847069         2.357610
 H        -1.585530         2.528061         4.140543
 H        -2.771154         1.320977         4.717646
 H        -2.206519        -0.228415         2.918332
 H         0.605833         0.696550         3.074890
 H         0.013007        -0.827916         2.272962
