19
Iteration:  2746
 O         0.817073         0.767056         0.207744
 C        -0.291388         0.954024         1.025127
 C        -1.837351         0.875821         0.453691
 C        -1.974258         1.649402         1.820151
 C        -0.622249         2.422035         1.488454
 O        -3.044649         2.125789         2.733404
 C        -2.172926         1.761508         3.846007
 C        -1.517089         0.646095         2.907961
 C        -0.148371         0.257449         2.418924
 H         1.431465         1.440213         0.453325
 H        -2.032917         1.303636        -0.574404
 H        -2.350603        -0.146516         0.290289
 H        -0.782551         3.128788         0.682133
 H        -0.157199         2.851627         2.365555
 H        -1.564742         2.608924         4.112948
 H        -2.830856         1.421579         4.584424
 H        -2.148195        -0.260290         2.945438
 H         0.786176         0.572360         2.898988
 H        -0.012021        -0.789310         2.460780
