19
Iteration:  3923
 O         0.905788         0.736551         0.235739
 C        -0.251386         1.013521         1.060010
 C        -1.749483         0.812573         0.544401
 C        -1.980041         1.618952         1.811918
 C        -0.704820         2.409123         1.586513
 O        -2.971480         2.260237         2.701394
 C        -2.251409         1.716838         3.843702
 C        -1.615847         0.609927         2.844728
 C        -0.165885         0.240394         2.345793
 H         0.947402         1.519250        -0.404738
 H        -1.986593         1.313636        -0.445715
 H        -2.030695        -0.189741         0.589290
 H        -0.919958         3.058136         0.750492
 H        -0.140592         2.852399         2.358713
 H        -1.538861         2.419387         4.044389
 H        -2.967113         1.562962         4.629090
 H        -2.356184        -0.177041         2.712921
 H         0.676022         0.727412         2.928111
 H        -0.064701        -0.877441         2.206104
