19
Iteration:  4156
 O         0.871839         0.638349         0.161256
 C        -0.250956         0.994410         1.068772
 C        -1.688879         0.852483         0.570208
 C        -1.965529         1.670413         1.814680
 C        -0.691542         2.442442         1.497331
 O        -2.992046         2.259405         2.710612
 C        -2.255953         1.598656         3.864662
 C        -1.603014         0.658527         2.883733
 C        -0.179272         0.346372         2.431871
 H         1.010506         1.415288        -0.462429
 H        -1.839708         1.471553        -0.313253
 H        -2.231368        -0.088325         0.280069
 H        -0.958341         3.125628         0.654607
 H        -0.212920         2.946984         2.222427
 H        -1.631170         2.387091         4.321924
 H        -3.171879         1.038531         4.361612
 H        -2.097045        -0.323692         2.867379
 H         0.667661         0.868395         3.035488
 H        -0.049355        -0.752251         2.314399
