19
Iteration:  2071
 O         0.809525         0.783476         0.162097
 C        -0.262993         1.081924         0.997924
 C        -1.792813         0.979881         0.458913
 C        -1.945684         1.609396         1.879520
 C        -0.652861         2.433248         1.586892
 O        -3.028361         2.184082         2.687885
 C        -2.253618         1.610075         3.815950
 C        -1.537634         0.598097         2.955113
 C        -0.142294         0.272683         2.391025
 H         1.045331        -0.168041         0.402054
 H        -1.702516         1.838357        -0.301937
 H        -2.249816         0.014486         0.006469
 H        -0.811295         3.240961         0.898199
 H         0.007965         2.707650         2.377448
 H        -1.525801         2.338681         4.332300
 H        -2.981789         1.158873         4.443439
 H        -2.085942        -0.317960         2.804220
 H         0.764435         0.710124         2.884490
 H         0.028374        -0.804127         2.330141
