19
Iteration:  4294
 O         0.904809         0.598207         0.251678
 C        -0.278517         1.045935         0.951432
 C        -1.691766         0.870066         0.498980
 C        -1.895052         1.649643         1.815802
 C        -0.719686         2.502027         1.446717
 O        -3.038154         2.308270         2.722572
 C        -2.287268         1.541982         3.948669
 C        -1.603457         0.605242         2.927581
 C        -0.173211         0.348188         2.378201
 H         1.081953         1.264588        -0.476971
 H        -1.995581         1.443263        -0.351097
 H        -2.129439        -0.170403         0.326435
 H        -0.783905         3.258041         0.644139
 H        -0.174861         2.788654         2.432036
 H        -1.612108         2.239288         4.347224
 H        -2.886523         1.143347         4.591633
 H        -2.261199        -0.237964         2.808713
 H         0.607275         0.889393         2.913079
 H         0.013901        -0.664843         2.374632
