19
Iteration:   953charge 0 multiplicity 1
 O         0.870470         0.726049         0.189308
 C        -0.239336         0.948321         1.056800
 C        -1.730132         1.009448         0.512848
 C        -1.871738         1.762555         1.834691
 C        -0.521004         2.443194         1.559740
 O        -2.988380         2.215186         2.722077
 C        -2.343416         1.596847         3.861761
 C        -1.639055         0.656052         2.817366
 C        -0.265767         0.141534         2.421768
 H         0.658258         1.053288        -0.665997
 H        -1.830619         1.557282        -0.445054
 H        -2.206926         0.019711         0.461521
 H        -0.763031         3.174418         0.712683
 H         0.060679         3.062233         2.390761
 H        -1.728366         2.312802         4.329371
 H        -2.890140         1.110933         4.630787
 H        -2.375255        -0.127728         2.732383
 H         0.575830         0.257234         3.112524
 H        -0.344798        -0.957379         2.185814
