19
Iteration:  3768
 O         0.879149         0.753554         0.164126
 C        -0.214587         0.994533         1.096193
 C        -1.777459         0.860070         0.556957
 C        -1.965294         1.578186         1.884354
 C        -0.681865         2.436297         1.546387
 O        -2.959566         2.235902         2.629271
 C        -2.318278         1.760447         3.813674
 C        -1.553709         0.627334         2.910393
 C        -0.147932         0.215635         2.371436
 H         0.956885         1.524951        -0.413886
 H        -1.973675         1.282403        -0.491443
 H        -2.206316        -0.123374         0.529182
 H        -0.969824         3.175443         0.796448
 H        -0.016466         2.807285         2.421110
 H        -1.758984         2.471987         4.388907
 H        -3.006628         1.253683         4.504295
 H        -2.236953        -0.248517         3.042678
 H         0.719222         0.532654         3.054576
 H        -0.366749        -0.960960         2.122364
