19
Iteration:  1686charge 0 multiplicity 1
 O         0.948285         0.945077         0.131651
 C        -0.274187         1.040352         0.948573
 C        -1.840101         0.883099         0.533264
 C        -2.013610         1.564261         1.826248
 C        -0.654091         2.323945         1.557889
 O        -2.890160         2.261366         2.713722
 C        -2.327815         1.702742         3.851782
 C        -1.589952         0.563055         2.902075
 C        -0.195761         0.219728         2.489898
 H         0.896952         0.078762        -0.248634
 H        -1.792875         1.441979        -0.494748
 H        -2.204907        -0.205281         0.265339
 H        -0.805656         3.073820         0.725582
 H        -0.061737         2.722453         2.404116
 H        -1.610685         2.525437         4.287016
 H        -2.934839         1.316328         4.712036
 H        -2.345496        -0.300178         2.974651
 H         0.635617         0.638658         3.031537
 H        -0.018102        -0.931602         2.302447
