19
Iteration:  4662charge 0 multiplicity 1
 O         0.907353         0.770611         0.204643
 C        -0.285121         1.029936         1.011767
 C        -1.814117         0.839314         0.519896
 C        -1.944206         1.638384         1.865523
 C        -0.671439         2.404824         1.528908
 O        -2.970495         2.282086         2.641943
 C        -2.309037         1.613731         3.846261
 C        -1.515753         0.601969         2.936893
 C        -0.163450         0.276875         2.414040
 H         0.722478         1.042359        -0.662509
 H        -1.955995         1.660650        -0.287082
 H        -2.304661        -0.117818         0.485923
 H        -0.828637         3.146525         0.741210
 H        -0.046087         2.880034         2.267203
 H        -1.771343         2.331622         4.380483
 H        -3.038255         1.023308         4.410863
 H        -2.129506        -0.323353         3.006687
 H         0.706662         0.661648         3.079143
 H         0.035935        -0.789266         2.356595
