19
Iteration:  3310
 O         0.762332         0.670158         0.255755
 C        -0.209232         1.091781         1.056587
 C        -1.760440         0.943483         0.494326
 C        -2.037128         1.646824         1.890807
 C        -0.602319         2.434971         1.516553
 O        -2.966966         2.219594         2.649309
 C        -2.289534         1.579410         3.832357
 C        -1.557001         0.619243         2.850025
 C        -0.133346         0.278847         2.467880
 H         0.649518         1.149365        -0.538799
 H        -1.868769         1.496905        -0.462075
 H        -2.065614         0.027682         0.556301
 H        -0.839204         3.086026         0.707043
 H         0.063320         2.981890         2.174808
 H        -1.647805         2.322208         4.225295
 H        -3.053892         1.219669         4.609736
 H        -2.050143        -0.311009         2.693770
 H         0.854805         0.673459         2.921363
 H         0.234443        -0.802431         2.138610
