19
Iteration:   314
 O         0.802868         0.738353         0.215646
 C        -0.311445         0.988253         1.100767
 C        -1.632241         0.971838         0.473300
 C        -1.896473         1.758446         1.898748
 C        -0.572149         2.423618         1.631253
 O        -2.897907         2.431444         2.705981
 C        -2.363345         1.529796         3.738655
 C        -1.690559         0.576309         2.769480
 C        -0.273058         0.061107         2.361645
 H         1.642078         1.011418         0.748565
 H        -1.554658         1.374179        -0.543939
 H        -2.288433         0.066828         0.434414
 H        -0.680634         3.126829         0.722828
 H         0.022238         2.914723         2.362853
 H        -1.499825         2.038322         4.257785
 H        -3.115648         1.268589         4.465385
 H        -2.303193        -0.240713         2.420964
 H         0.422984         0.190940         3.215668
 H        -0.317284        -0.954236         2.283567
