19
Iteration:  3965charge 0 multiplicity 1
 O         0.874031         0.694884         0.254468
 C        -0.221219         0.972499         1.018691
 C        -1.787501         0.902657         0.525837
 C        -1.959299         1.720165         1.839580
 C        -0.669500         2.437483         1.540202
 O        -3.022160         2.147190         2.686325
 C        -2.295596         1.680831         3.814704
 C        -1.566117         0.675882         2.853055
 C        -0.128380         0.261600         2.411126
 H         0.715489         0.995472        -0.613670
 H        -1.933665         1.639543        -0.339156
 H        -2.257746        -0.022747         0.508010
 H        -0.647141         3.052249         0.706638
 H        -0.159630         2.906755         2.386851
 H        -1.513987         2.465750         4.348546
 H        -2.931818         1.189361         4.520917
 H        -2.313880        -0.160299         2.806028
 H         0.734048         0.740476         2.986138
 H         0.148164        -0.879942         2.403868
