19
Iteration:  1639
 O         0.814903         0.898315         0.230473
 C        -0.240839         1.012193         1.028999
 C        -1.767419         0.727429         0.458337
 C        -1.938566         1.691478         1.835474
 C        -0.662426         2.512062         1.523333
 O        -2.980915         2.233249         2.771838
 C        -2.188652         1.659957         3.797995
 C        -1.616236         0.621682         2.853161
 C        -0.208109         0.200874         2.374579
 H         1.151927        -0.052618         0.266837
 H        -2.099344         1.292642        -0.473650
 H        -2.204771        -0.294075         0.497244
 H        -0.674803         3.273204         0.834534
 H        -0.114340         2.794402         2.402452
 H        -1.360433         2.232253         4.208175
 H        -2.800873         1.321153         4.624851
 H        -2.363493        -0.137918         2.673056
 H         0.716455         0.495622         2.990753
 H        -0.190553        -0.906824         2.278191
