19
Iteration:    87charge 0 multiplicity 1
 O         0.889013         0.730742         0.272522
 C        -0.214226         0.907984         1.090418
 C        -1.638609         1.066895         0.441443
 C        -1.864335         1.782617         1.867308
 C        -0.515006         2.389242         1.701692
 O        -2.888910         2.380702         2.718392
 C        -2.398097         1.589159         3.799773
 C        -1.765049         0.600976         2.709215
 C        -0.374231        -0.019787         2.378204
 H         0.837722         1.327612        -0.501702
 H        -1.672750         1.692317        -0.437119
 H        -2.255631         0.196455         0.229702
 H        -0.456306         3.062021         0.761917
 H        -0.071298         2.932648         2.567021
 H        -1.652748         2.147090         4.364302
 H        -3.171145         1.045448         4.318021
 H        -2.523940        -0.136016         2.497034
 H         0.425533         0.442478         3.050958
 H        -0.281167        -1.078895         2.248874
