19
Iteration:  1570
 O         0.805211         0.883202         0.123197
 C        -0.229485         0.945301         1.041218
 C        -1.750228         0.818394         0.627777
 C        -1.887390         1.671885         1.811378
 C        -0.567920         2.389714         1.536900
 O        -3.045461         2.255342         2.695269
 C        -2.304443         1.624137         3.804272
 C        -1.591379         0.670827         2.858509
 C        -0.153640         0.253379         2.447484
 H         0.828777         0.023661        -0.338857
 H        -1.982050         1.493941        -0.177037
 H        -2.359825        -0.081148         0.708688
 H        -0.488028         3.232532         0.709476
 H        -0.057528         2.903230         2.383839
 H        -1.667679         2.297323         4.300525
 H        -2.994295         1.103079         4.461097
 H        -2.244452        -0.205470         2.748988
 H         0.712570         0.574111         3.097479
 H        -0.150883        -0.814137         2.279997
