19
Iteration:  4212
 O         0.930685         0.773700         0.201971
 C        -0.278672         1.008537         1.032802
 C        -1.730062         0.825125         0.465997
 C        -2.005848         1.586538         1.855898
 C        -0.722339         2.421990         1.554914
 O        -3.014816         2.273452         2.655658
 C        -2.251902         1.746136         3.893372
 C        -1.596858         0.642960         2.935922
 C        -0.127359         0.138853         2.376781
 H         0.879875         1.271457        -0.578630
 H        -1.887244         1.626092        -0.327748
 H        -1.942935        -0.228533         0.252235
 H        -0.904279         3.093813         0.718565
 H        -0.204923         2.921840         2.292435
 H        -1.611310         2.559963         4.325945
 H        -2.922159         1.605804         4.888760
 H        -2.234317        -0.282554         2.977696
 H         0.828563         0.463936         2.871246
 H        -0.159346        -1.012316         2.273289
