19
Iteration:  3745
 O         0.852044         0.779714         0.198262
 C        -0.254201         1.007815         1.015347
 C        -1.707928         0.879998         0.453988
 C        -1.945175         1.616450         1.864348
 C        -0.622014         2.371912         1.507654
 O        -3.072816         2.195780         2.634593
 C        -2.227165         1.726160         3.874481
 C        -1.610532         0.614381         2.997767
 C        -0.183353         0.220892         2.460519
 H         1.149930         1.422665        -0.436797
 H        -2.047971         1.532260        -0.384458
 H        -2.206923        -0.080185         0.267476
 H        -0.758864         3.019079         0.672906
 H        -0.063717         2.843029         2.380568
 H        -1.428401         2.400473         4.124111
 H        -2.791614         1.573007         4.756087
 H        -2.411331        -0.137925         2.830577
 H         0.692601         0.774586         2.918776
 H        -0.061210        -0.993977         2.261674
