19
Iteration:   726
 O         0.804949         0.758518         0.139509
 C        -0.252248         0.915347         1.073580
 C        -1.763609         1.040234         0.545982
 C        -1.955897         1.705748         1.828670
 C        -0.448692         2.432469         1.582847
 O        -3.074266         2.219259         2.650438
 C        -2.306907         1.597672         3.829797
 C        -1.661476         0.661830         2.880921
 C        -0.192500         0.170195         2.385107
 H         1.600178         0.570627         0.629309
 H        -1.825577         1.647589        -0.312584
 H        -2.237558         0.106732         0.378114
 H        -0.281735         3.130661         0.664105
 H         0.307531         2.751747         2.443935
 H        -1.539493         2.235375         4.260850
 H        -3.033174         1.336452         4.578097
 H        -2.270318        -0.215792         2.886918
 H         0.682957         0.608428         2.842136
 H        -0.190821        -0.878531         2.263580
