19
Iteration:  3356charge 0 multiplicity 1
 O         0.854701         0.777006         0.181679
 C        -0.224030         0.979372         1.025583
 C        -1.773300         0.884953         0.507930
 C        -1.957655         1.657378         1.834817
 C        -0.584875         2.332666         1.507099
 O        -3.059282         2.286813         2.705361
 C        -2.269689         1.622723         3.853829
 C        -1.598997         0.644463         2.918082
 C        -0.134711         0.275737         2.412137
 H         0.670758         1.297286        -0.590827
 H        -1.778755         1.502491        -0.385821
 H        -2.046342        -0.097718         0.502082
 H        -0.631411         2.914556         0.609764
 H        -0.175073         2.935096         2.333897
 H        -1.706608         2.365852         4.456357
 H        -3.004595         1.083584         4.550671
 H        -2.218948        -0.259965         2.950087
 H         0.695104         0.601720         3.110442
 H        -0.073376        -0.911517         2.360083
