19
Iteration:  2692
 O         0.582430         0.822479         0.081262
 C        -0.240518         0.950304         1.158223
 C        -1.663451         0.708512         0.564531
 C        -1.971691         1.703498         1.772385
 C        -0.677430         2.429707         1.586680
 O        -2.981062         2.237579         2.632361
 C        -2.215935         1.654810         3.836387
 C        -1.541171         0.719626         2.833810
 C        -0.078587         0.284637         2.463649
 H         1.464993         0.613295         0.405092
 H        -1.662947         1.264066        -0.434605
 H        -2.000172        -0.403792         0.675833
 H        -0.638038         3.276525         0.906024
 H        -0.335215         2.641010         2.591655
 H        -1.631962         2.523732         4.250553
 H        -2.890032         1.168590         4.472296
 H        -2.082448        -0.209428         2.657705
 H         0.825079         0.727118         2.955103
 H        -0.079023        -0.751143         2.308641
