19
Iteration:  4327charge 0 multiplicity 1
 O         0.834432         0.756806         0.242502
 C        -0.199904         1.023964         1.092800
 C        -1.820814         0.864999         0.549357
 C        -1.937682         1.682552         1.760476
 C        -0.653707         2.435620         1.433954
 O        -2.972035         2.254268         2.659379
 C        -2.233582         1.557277         3.857432
 C        -1.589461         0.644440         2.883872
 C        -0.172465         0.239562         2.491514
 H         0.645100         1.144699        -0.574963
 H        -1.924888         1.460844        -0.350839
 H        -2.245502        -0.203722         0.526899
 H        -0.678351         3.111601         0.591762
 H        -0.216381         3.052179         2.271578
 H        -1.691987         2.295843         4.400833
 H        -2.823612         1.116711         4.539984
 H        -2.274676        -0.186444         2.758882
 H         0.658861         0.639680         3.088455
 H        -0.014085        -0.771941         2.290262
