19
Iteration:  1707charge 0 multiplicity 1
 O         0.747353         0.862044         0.141856
 C        -0.239498         0.982698         1.097577
 C        -1.711074         0.829829         0.514900
 C        -1.892995         1.667892         1.839581
 C        -0.605032         2.464511         1.651919
 O        -3.088029         2.232822         2.624764
 C        -2.228165         1.600380         3.835307
 C        -1.545096         0.648182         2.913617
 C        -0.152479         0.235361         2.375968
 H         0.829833        -0.076615        -0.147328
 H        -1.907875         1.532370        -0.427378
 H        -2.108648        -0.213393         0.169086
 H        -0.768728         3.217491         0.864988
 H        -0.065541         2.854469         2.514928
 H        -1.505479         2.391340         4.180746
 H        -2.886308         1.276828         4.670188
 H        -2.354895        -0.149162         2.803609
 H         0.663939         0.668541         2.950711
 H        -0.018119        -0.939403         2.210186
