19
Iteration:  3340charge 0 multiplicity 1
 O         0.932090         0.706209         0.130358
 C        -0.204389         0.968014         0.997700
 C        -1.765376         0.841456         0.506171
 C        -1.979709         1.701326         1.846390
 C        -0.673430         2.497668         1.560982
 O        -2.962044         2.232959         2.744055
 C        -2.384962         1.638930         3.908635
 C        -1.583641         0.678208         2.866697
 C        -0.149700         0.229380         2.449084
 H         0.762778         1.160302        -0.745669
 H        -1.990509         1.252050        -0.515384
 H        -2.398533        -0.196023         0.387526
 H        -0.825647         3.316950         0.791857
 H        -0.048646         2.736074         2.432175
 H        -1.737481         2.392136         4.342787
 H        -3.115714         1.223969         4.537942
 H        -2.200921        -0.194868         2.622432
 H         0.737897         0.661430         2.944520
 H         0.134380        -0.821054         2.391206
