19
Iteration:  3722charge 0 multiplicity 1
 O         0.848321         0.736828         0.253274
 C        -0.225001         0.989152         1.105095
 C        -1.810351         0.825483         0.544451
 C        -2.051340         1.678939         1.712056
 C        -0.644096         2.429801         1.575506
 O        -2.985390         2.187202         2.702490
 C        -2.172128         1.688572         3.774798
 C        -1.567362         0.636290         2.846164
 C        -0.181573         0.269026         2.446237
 H         1.028376         1.397159        -0.496280
 H        -1.769595         1.404858        -0.362053
 H        -2.456917        -0.061061         0.317597
 H        -0.667787         3.087256         0.737996
 H        -0.313637         2.893484         2.511821
 H        -1.529630         2.441345         4.211154
 H        -2.753721         1.366860         4.560360
 H        -2.298067        -0.179149         2.812078
 H         0.637191         0.763084         3.007681
 H         0.076909        -0.893109         2.162914
