19
Iteration:   977
 O         0.854580         0.795781         0.189760
 C        -0.256649         0.922519         1.047225
 C        -1.847225         0.957232         0.541240
 C        -1.921417         1.639896         1.865082
 C        -0.556509         2.365019         1.666585
 O        -2.928250         2.357704         2.567497
 C        -2.333050         1.686756         3.836818
 C        -1.648443         0.523167         2.940252
 C        -0.146254         0.138334         2.324061
 H         0.789384         1.488631        -0.538728
 H        -1.893118         1.669946        -0.270699
 H        -2.292582         0.036107         0.255792
 H        -0.565692         3.186814         1.024605
 H        -0.022376         2.655223         2.718701
 H        -1.765873         2.446547         4.345121
 H        -3.007886         1.237384         4.551298
 H        -2.321287        -0.300607         2.998503
 H         0.766515         0.458500         2.908040
 H        -0.052822        -0.911833         2.036348
