19
Iteration:  1612
 O         0.849538         0.772705         0.070291
 C        -0.197580         1.023565         1.066548
 C        -1.733823         0.932936         0.521220
 C        -2.034984         1.597311         1.939670
 C        -0.672168         2.382546         1.574275
 O        -3.033629         2.185176         2.685975
 C        -2.246351         1.701737         3.814268
 C        -1.554942         0.643632         2.911174
 C        -0.171290         0.270370         2.385351
 H         1.090168        -0.206480         0.176413
 H        -1.779818         1.805000        -0.111172
 H        -2.102530         0.125686        -0.125282
 H        -0.840708         3.261742         0.813065
 H        -0.011261         2.870260         2.355283
 H        -1.479209         2.456008         4.116905
 H        -2.848008         1.267734         4.628358
 H        -2.303612        -0.195437         2.910599
 H         0.610145         0.700717         2.973267
 H        -0.120805        -0.816937         2.411625
