19
Iteration:  3974
 O         0.850429         0.686352         0.223752
 C        -0.268047         1.005140         1.016092
 C        -1.774822         0.888254         0.564144
 C        -1.928498         1.663229         1.811307
 C        -0.620217         2.486760         1.562999
 O        -3.088140         2.247279         2.680947
 C        -2.282500         1.654549         3.793566
 C        -1.515466         0.574951         2.898809
 C        -0.101093         0.265294         2.412294
 H         0.816070         0.980436        -0.661850
 H        -1.865867         1.300486        -0.502973
 H        -2.289676        -0.089487         0.477850
 H        -0.587974         3.265384         0.810672
 H        -0.161666         2.810797         2.576876
 H        -1.755233         2.632505         4.338342
 H        -2.943715         1.162640         4.482725
 H        -2.278909        -0.250827         2.756159
 H         0.577581         0.860316         2.990641
 H         0.119066        -0.853146         2.351162
