19
Iteration:  3440charge 0 multiplicity 1
 O         0.878786         0.788317         0.248536
 C        -0.225029         1.015917         1.064441
 C        -1.831529         0.881336         0.591256
 C        -1.987264         1.582741         1.838886
 C        -0.634578         2.477598         1.500544
 O        -2.970448         2.251517         2.630556
 C        -2.210144         1.622530         3.826296
 C        -1.590747         0.630516         2.879906
 C        -0.184870         0.198841         2.413094
 H         0.707768         1.269552        -0.629659
 H        -1.975233         1.442228        -0.354346
 H        -2.280793        -0.061172         0.317003
 H        -0.763630         3.054384         0.615213
 H         0.076645         2.946467         2.200543
 H        -1.570332         2.339250         4.305600
 H        -2.970810         1.203448         4.528646
 H        -2.213961        -0.238322         2.951448
 H         0.518542         0.580387         3.139808
 H        -0.149163        -0.869343         2.293888
