19
Iteration:  1258
 O         0.730932         0.722317         0.042461
 C        -0.278624         0.957449         1.110145
 C        -1.731568         0.851919         0.580433
 C        -1.944700         1.728379         1.848569
 C        -0.536524         2.474371         1.573349
 O        -3.076092         2.181843         2.710329
 C        -2.248540         1.620346         3.795361
 C        -1.602327         0.650484         2.792366
 C        -0.147886         0.336505         2.494219
 H         1.657938         0.569184         0.373222
 H        -1.728999         1.418851        -0.359077
 H        -2.233137        -0.120010         0.436698
 H        -0.461491         3.044750         0.712419
 H         0.114859         2.787381         2.417768
 H        -1.614557         2.398264         4.139073
 H        -2.761935         1.250843         4.592141
 H        -2.209983        -0.207374         2.568806
 H         0.552836         0.883983         3.103156
 H         0.014051        -0.707454         2.435280
