19
Iteration:  3495
 O         0.825046         0.675974         0.182841
 C        -0.191395         1.008702         1.072093
 C        -1.749791         0.934024         0.481424
 C        -1.915347         1.682069         1.859739
 C        -0.676142         2.463946         1.539941
 O        -3.020001         2.174796         2.659508
 C        -2.340247         1.605252         3.834921
 C        -1.547361         0.662157         2.933572
 C        -0.138369         0.273986         2.424524
 H         0.647660         1.159306        -0.612118
 H        -1.897793         1.649531        -0.369830
 H        -2.243872        -0.022408         0.515256
 H        -0.656306         3.076363         0.679042
 H         0.080666         2.920315         2.228979
 H        -1.574100         2.334120         4.226394
 H        -3.001830         1.309030         4.724750
 H        -2.243853        -0.158734         2.795152
 H         0.665982         0.544591         3.107812
 H        -0.015176        -0.773522         2.277134
