19
Iteration:  3532
 O         0.847650         0.740864         0.198655
 C        -0.234709         1.004477         1.041956
 C        -1.770327         0.870765         0.517157
 C        -1.979171         1.597528         1.814510
 C        -0.617001         2.432031         1.606635
 O        -3.005986         2.202946         2.657139
 C        -2.255641         1.656406         3.848357
 C        -1.589663         0.704533         2.942834
 C        -0.174108         0.287798         2.393524
 H         0.985110         1.308916        -0.522106
 H        -2.047731         1.330562        -0.462506
 H        -2.112735        -0.072258         0.157812
 H        -0.717874         3.028265         0.678027
 H         0.008884         2.760088         2.407867
 H        -1.580329         2.380229         4.207783
 H        -2.953225         1.264858         4.579327
 H        -2.055685        -0.270720         2.803281
 H         0.746962         0.677545         2.970885
 H        -0.354841        -0.932997         2.315251
