19
Iteration:  1195
 O         0.881789         0.780461         0.096303
 C        -0.249869         0.918831         1.038145
 C        -1.872593         0.803724         0.523278
 C        -1.918965         1.687286         1.827738
 C        -0.599641         2.462820         1.539594
 O        -3.008896         2.229503         2.644653
 C        -2.267628         1.686231         3.906549
 C        -1.557814         0.666506         2.893930
 C        -0.206492         0.181856         2.456563
 H         1.324437         1.640446         0.290487
 H        -2.032768         1.332902        -0.410060
 H        -2.346689        -0.181518         0.519408
 H        -0.654051         3.194777         0.833034
 H         0.088568         2.790495         2.344974
 H        -1.640227         2.591033         4.375935
 H        -2.885478         1.175762         4.649731
 H        -2.356383        -0.022038         2.744211
 H         0.652149         0.537923         3.056320
 H        -0.102549        -0.892229         2.306295
