19
Iteration:  1533charge 0 multiplicity 1
 O         0.857815         0.890084         0.260137
 C        -0.286670         0.979502         1.026667
 C        -1.726156         0.842567         0.496037
 C        -1.949939         1.597618         1.818057
 C        -0.680154         2.366771         1.450333
 O        -2.844373         2.313641         2.695827
 C        -2.254577         1.630660         3.869042
 C        -1.650697         0.595803         2.883900
 C        -0.231807         0.289406         2.407995
 H         0.882900         0.016401        -0.241467
 H        -1.976717         1.499076        -0.369398
 H        -2.171317        -0.144915         0.260377
 H        -1.076918         3.034449         0.593026
 H        -0.392184         2.853122         2.459249
 H        -1.547173         2.338275         4.473447
 H        -2.886000         1.133410         4.627703
 H        -2.335482        -0.306188         3.028239
 H         0.530978         0.706087         3.021796
 H         0.062947        -0.787508         2.230054
