19
Iteration:  4696
 O         0.867828         0.848919         0.145509
 C        -0.249900         0.950070         1.043142
 C        -1.702084         0.729351         0.518282
 C        -1.966625         1.605314         1.833991
 C        -0.754223         2.456891         1.533784
 O        -2.901523         2.336070         2.716510
 C        -2.232862         1.618921         3.839993
 C        -1.621103         0.617563         2.862923
 C        -0.234832         0.242025         2.477693
 H         1.003077         1.627296        -0.375685
 H        -1.902352         1.106173        -0.540005
 H        -2.103403        -0.290615         0.378858
 H        -0.803298         3.076777         0.660273
 H        -0.211912         2.864160         2.345228
 H        -1.613198         2.328577         4.323867
 H        -2.951583         1.179528         4.604823
 H        -2.317611        -0.235855         2.799390
 H         0.511010         0.779891         3.172235
 H         0.009617        -0.816912         2.325186
