19
Iteration:  3504
 O         0.830117         0.689628         0.205989
 C        -0.244834         0.961736         1.048026
 C        -1.794457         0.954238         0.566563
 C        -1.919038         1.680177         1.867250
 C        -0.603726         2.547204         1.567963
 O        -3.026397         2.149835         2.668049
 C        -2.350879         1.690411         3.807416
 C        -1.556107         0.594155         2.883132
 C        -0.093427         0.201181         2.397419
 H         0.842242         1.148129        -0.606032
 H        -1.969133         1.508855        -0.363810
 H        -2.264844        -0.120895         0.452003
 H        -0.767611         3.122788         0.610782
 H        -0.003385         3.146366         2.334353
 H        -1.535220         2.498222         4.138588
 H        -3.097807         1.312416         4.542869
 H        -2.199843        -0.291752         2.708613
 H         0.691054         0.677934         2.931919
 H         0.132443        -0.771669         2.420888
