19
Iteration:   291charge 0 multiplicity 1
 O         0.882410         0.673256         0.140432
 C        -0.204967         1.040737         1.076716
 C        -1.723864         1.018395         0.469998
 C        -1.934599         1.649781         1.790697
 C        -0.480816         2.378483         1.650408
 O        -2.885103         2.397290         2.666593
 C        -2.389929         1.546502         3.907625
 C        -1.753159         0.611667         2.853295
 C        -0.327661         0.143709         2.359383
 H         1.659861         1.226633         0.224581
 H        -1.731717         1.581944        -0.474780
 H        -2.153938         0.025336         0.224034
 H        -0.497238         3.277746         0.925456
 H        -0.002863         2.656267         2.531713
 H        -1.913137         2.139505         4.704827
 H        -3.315005         1.096658         4.259915
 H        -2.465426        -0.209679         2.709141
 H         0.320188         0.491330         3.161200
 H        -0.136566        -0.865606         2.321083
