19
Iteration:  1470
 O         0.760583         0.827873         0.117550
 C        -0.190959         0.999686         1.013389
 C        -1.661963         0.878747         0.510317
 C        -1.919450         1.583922         1.852814
 C        -0.628965         2.426066         1.581666
 O        -3.069284         2.272698         2.651166
 C        -2.278709         1.748073         3.904052
 C        -1.633732         0.629753         2.948261
 C        -0.116107         0.111116         2.364416
 H         1.363482         0.062053         0.375712
 H        -1.808737         1.590088        -0.325299
 H        -2.003525        -0.164327         0.315288
 H        -0.879336         3.297128         0.767712
 H        -0.135995         3.102994         2.356320
 H        -1.871492         2.658948         4.204721
 H        -2.902573         1.339585         4.697768
 H        -2.402174        -0.234727         3.045383
 H         0.776504         0.420666         2.926418
 H        -0.103622        -0.986932         2.035353
