19
Iteration:   245charge 0 multiplicity 1
 O         0.774351         0.668716         0.246228
 C        -0.195633         1.019722         1.159758
 C        -1.685819         1.073032         0.499313
 C        -1.931760         1.735852         1.803853
 C        -0.416157         2.413983         1.760780
 O        -2.978815         2.258571         2.601549
 C        -2.307532         1.624499         3.787452
 C        -1.664818         0.583016         2.753087
 C        -0.338722         0.113735         2.386011
 H         1.056638         1.430344        -0.349951
 H        -1.827604         1.534417        -0.495418
 H        -2.207640         0.129542         0.325912
 H        -0.515999         3.215944         0.960038
 H         0.265900         2.738504         2.526174
 H        -1.779659         2.470075         4.203301
 H        -3.062181         1.154812         4.467021
 H        -2.407652        -0.254492         2.714007
 H         0.465872         0.125206         3.086269
 H        -0.292367        -0.930326         2.000906
