19
Iteration:  2643
 O         0.879554         0.638952         0.156565
 C        -0.266663         1.019274         0.952804
 C        -1.825649         0.899154         0.509075
 C        -1.958341         1.605697         1.899838
 C        -0.699316         2.451825         1.451956
 O        -2.982506         2.228637         2.673024
 C        -2.346065         1.656494         3.916910
 C        -1.500514         0.676981         3.007594
 C        -0.110538         0.284518         2.375469
 H         1.459906         1.418895         0.324833
 H        -2.017718         1.588695        -0.280891
 H        -2.293693        -0.024977         0.439138
 H        -0.877994         3.058297         0.542067
 H        -0.010889         3.041870         2.104747
 H        -1.893820         2.394969         4.543481
 H        -3.083758         0.983341         4.467146
 H        -2.022534        -0.301390         3.017074
 H         0.684922         0.851737         2.795857
 H         0.125319        -0.808532         2.209719
