19
Iteration:  2243charge 0 multiplicity 1
 O         0.754351         0.909526         0.042963
 C        -0.264717         0.971020         1.027726
 C        -1.729958         0.879149         0.474140
 C        -1.960648         1.613628         1.886271
 C        -0.600576         2.435693         1.598052
 O        -2.968979         2.276030         2.633461
 C        -2.226679         1.578414         3.877175
 C        -1.633986         0.559359         2.930285
 C        -0.201281         0.222368         2.467768
 H         1.580680         0.682956         0.428159
 H        -1.952923         1.478458        -0.401277
 H        -2.123878        -0.083371         0.365617
 H        -0.717064         3.195124         0.787587
 H         0.269146         2.770374         2.315086
 H        -1.682323         2.374529         4.266061
 H        -2.877561         1.166508         4.641003
 H        -2.247786        -0.337271         2.845626
 H         0.454062         0.789907         3.074984
 H         0.076672        -0.897827         2.510735
