19
Iteration:  4581charge 0 multiplicity 1
 O         0.899496         0.831741         0.225326
 C        -0.286546         0.991649         1.046918
 C        -1.851105         0.874436         0.584591
 C        -1.958941         1.583184         1.845806
 C        -0.630892         2.381718         1.464780
 O        -2.951585         2.305371         2.661814
 C        -2.289967         1.616227         3.810385
 C        -1.601723         0.575583         2.894562
 C        -0.113809         0.258261         2.419995
 H         0.787708         1.546523        -0.407731
 H        -2.050989         1.425768        -0.343274
 H        -2.264955        -0.171848         0.384434
 H        -0.842204         3.012315         0.638381
 H        -0.067751         2.819801         2.189202
 H        -1.572927         2.289457         4.412075
 H        -2.845063         1.215550         4.612162
 H        -2.178417        -0.379570         2.939267
 H         0.627967         0.744574         3.000563
 H        -0.022408        -0.849545         2.379987
