19
Iteration:  2188charge 0 multiplicity 1
 O         0.763751         0.844126         0.182237
 C        -0.221668         1.061031         1.047574
 C        -1.787912         0.981271         0.514655
 C        -1.868895         1.667057         1.860799
 C        -0.631084         2.524405         1.467137
 O        -2.948388         2.079598         2.680168
 C        -2.295510         1.587415         3.883688
 C        -1.562830         0.580020         2.905466
 C        -0.203066         0.251425         2.379243
 H         1.178735        -0.017234         0.474639
 H        -2.037991         1.719166        -0.207391
 H        -2.316246         0.101120         0.467307
 H        -0.816746         3.071424         0.530770
 H         0.172099         2.948455         2.226460
 H        -1.577257         2.268631         4.194899
 H        -3.102320         1.335938         4.587129
 H        -2.187393        -0.309913         2.716612
 H         0.635718         0.406874         2.986327
 H        -0.204276        -0.911871         2.321933
