19
Iteration:   724
 O         0.801590         0.749993         0.147661
 C        -0.254455         0.935381         1.086028
 C        -1.744847         1.036481         0.559738
 C        -1.961473         1.720209         1.826787
 C        -0.452567         2.436623         1.569146
 O        -3.077662         2.212323         2.650871
 C        -2.297440         1.597303         3.821496
 C        -1.664685         0.653238         2.882213
 C        -0.191561         0.170334         2.366642
 H         1.569682         0.571080         0.654435
 H        -1.837041         1.660942        -0.311688
 H        -2.232740         0.106237         0.363182
 H        -0.358051         3.071055         0.717638
 H         0.355954         2.798272         2.419781
 H        -1.514197         2.294673         4.288435
 H        -3.052392         1.379904         4.594850
 H        -2.257221        -0.244426         2.863278
 H         0.679810         0.528334         2.884513
 H        -0.205010        -0.938039         2.200751
