19
Iteration:  4100charge 0 multiplicity 1
 O         0.843412         0.806084         0.191532
 C        -0.259840         0.998513         1.024411
 C        -1.757005         0.831937         0.476346
 C        -1.918815         1.700769         1.823181
 C        -0.608985         2.395396         1.553225
 O        -3.035283         2.182949         2.636913
 C        -2.253303         1.680064         3.830240
 C        -1.588353         0.644406         2.922419
 C        -0.185314         0.225053         2.505184
 H         0.607968         1.122605        -0.733863
 H        -1.971474         1.351161        -0.385030
 H        -2.181661        -0.198097         0.583241
 H        -0.711034         3.156836         0.772204
 H        -0.101949         2.690684         2.359045
 H        -1.494487         2.446088         4.183753
 H        -2.826994         1.576273         4.828599
 H        -2.244629        -0.234252         2.818390
 H         0.748356         0.598815         3.073489
 H         0.042812        -0.831184         2.427001
