19
Iteration:  2446
 O         0.893108         0.925127         0.118734
 C        -0.223237         0.928065         1.025195
 C        -1.675862         0.931993         0.346836
 C        -1.947169         1.653536         1.864874
 C        -0.627229         2.404112         1.496398
 O        -3.025915         2.207895         2.779255
 C        -2.290636         1.712961         3.969995
 C        -1.638944         0.672734         2.934269
 C        -0.249347         0.089905         2.446214
 H         0.982476         0.088790        -0.303266
 H        -1.486133         1.667155        -0.453545
 H        -2.023180        -0.092469         0.020672
 H        -0.835590         2.962831         0.594198
 H        -0.051530         2.996160         2.252988
 H        -1.644570         2.445528         4.449598
 H        -3.001190         1.277459         4.747318
 H        -2.373601        -0.197341         2.930922
 H         0.721053         0.181407         2.960924
 H        -0.395462        -0.949116         2.233523
