19
Iteration:  2766charge 0 multiplicity 1
 O         0.780131         0.724762         0.138978
 C        -0.204211         1.053206         1.109910
 C        -1.719483         0.778091         0.608519
 C        -2.040321         1.631020         1.777808
 C        -0.785056         2.446333         1.571001
 O        -2.986261         2.290665         2.679390
 C        -2.115473         1.616330         3.808051
 C        -1.603844         0.661627         2.855476
 C        -0.107994         0.256758         2.412262
 H         1.253082         1.550994        -0.005111
 H        -1.758124         1.150559        -0.486653
 H        -2.287315        -0.194224         0.552734
 H        -0.791102         3.146064         0.701554
 H        -0.249637         2.890303         2.415726
 H        -1.441189         2.409999         4.034600
 H        -2.868393         1.222295         4.580264
 H        -2.309019        -0.186457         2.651159
 H         0.581137         0.542629         3.234831
 H         0.020616        -0.881666         2.312095
