19
Iteration:  2626charge 0 multiplicity 1
 O         0.764886         0.693635         0.262970
 C        -0.287348         1.047770         0.993058
 C        -1.799097         0.781309         0.542357
 C        -1.971536         1.687621         1.802559
 C        -0.614838         2.430292         1.539812
 O        -3.016248         2.201606         2.712287
 C        -2.280366         1.653482         3.848274
 C        -1.455770         0.706306         2.876187
 C        -0.100531         0.319342         2.328141
 H         1.241787         1.463206        -0.147872
 H        -1.907325         1.192589        -0.553712
 H        -2.091536        -0.337956         0.605153
 H        -0.805205         3.228993         0.811443
 H        -0.166115         2.598946         2.499268
 H        -1.678195         2.509435         4.389980
 H        -2.994788         1.174354         4.480158
 H        -2.159439        -0.146700         2.867580
 H         0.882013         0.438511         2.865564
 H        -0.250311        -0.740849         2.217118
