19
Iteration:  1477
 O         0.799617         0.842753         0.110534
 C        -0.298097         1.001027         1.000946
 C        -1.643315         0.859506         0.473863
 C        -1.929899         1.643404         1.855670
 C        -0.587954         2.474011         1.576331
 O        -3.056631         2.178554         2.659972
 C        -2.254145         1.736239         3.877786
 C        -1.611273         0.662640         2.965141
 C        -0.195997         0.131901         2.420731
 H         1.258167         0.065985         0.458293
 H        -1.810515         1.598122        -0.320343
 H        -2.133827        -0.097803         0.321281
 H        -0.813482         3.078828         0.652794
 H         0.041823         3.015801         2.424613
 H        -1.673464         2.725447         4.152352
 H        -2.952432         1.416831         4.658916
 H        -2.132744        -0.294788         2.993073
 H         0.714703         0.197712         3.003978
 H        -0.204223        -0.927834         2.078992
