19
Iteration:  2093
 O         0.817008         0.913013         0.118357
 C        -0.245712         0.997104         1.018176
 C        -1.723779         0.918062         0.472397
 C        -2.004413         1.645808         1.849147
 C        -0.544343         2.378504         1.646607
 O        -3.048430         2.121876         2.687787
 C        -2.295260         1.692050         3.927597
 C        -1.540598         0.686854         2.884287
 C        -0.194792         0.193292         2.324031
 H         1.109845         0.035293        -0.017774
 H        -1.992786         1.348793        -0.572842
 H        -2.362907        -0.015876         0.682689
 H        -0.371822         3.172648         0.931609
 H         0.076833         2.574075         2.496844
 H        -1.696896         2.612115         4.334174
 H        -3.008262         1.240057         4.586888
 H        -2.199956        -0.182208         2.827739
 H         0.653571         0.593939         2.951082
 H         0.016364        -0.851234         2.212523
