19
Iteration:    37charge 0 multiplicity 1
 O         0.937280         0.798606         0.289750
 C        -0.275549         0.981599         1.060547
 C        -1.716312         1.164347         0.438463
 C        -1.854468         1.761209         1.822015
 C        -0.486238         2.371562         1.720167
 O        -2.919200         2.273061         2.685182
 C        -2.353623         1.661495         3.811459
 C        -1.774763         0.533476         2.759402
 C        -0.385485         0.004381         2.339055
 H         1.044705        -0.138167         0.164551
 H        -1.578171         1.824310        -0.434169
 H        -2.436444         0.388906         0.129581
 H        -0.379287         3.227132         1.154241
 H         0.134000         2.455396         2.657782
 H        -1.413228         2.175384         4.053453
 H        -3.077559         1.480834         4.623632
 H        -2.590340        -0.191166         2.450999
 H         0.432172         0.232610         2.953434
 H        -0.326737        -1.111004         2.039440
