19
Iteration:  3260charge 0 multiplicity 1
 O         0.841612         0.770443         0.232898
 C        -0.189427         1.084311         1.052483
 C        -1.793220         0.800346         0.493498
 C        -1.939407         1.587969         1.823980
 C        -0.634566         2.441267         1.520049
 O        -3.016930         2.252709         2.697151
 C        -2.272383         1.731554         3.829906
 C        -1.624663         0.574541         2.952698
 C        -0.148105         0.198832         2.357444
 H         0.881566         1.466287        -0.453558
 H        -1.892391         1.491845        -0.376976
 H        -2.338537        -0.244746         0.522560
 H        -0.611502         3.250040         0.752201
 H        -0.020579         2.789419         2.405717
 H        -1.514931         2.369080         4.341392
 H        -3.008034         1.439247         4.579058
 H        -2.210249        -0.373257         2.820748
 H         0.730471         0.452370         2.899462
 H        -0.052327        -0.819912         2.074003
