19
Iteration:  4811
 O         0.941689         0.830685         0.216847
 C        -0.181448         1.021639         0.989278
 C        -1.883654         0.818912         0.556155
 C        -2.010468         1.615621         1.801048
 C        -0.614810         2.401991         1.430547
 O        -2.988282         2.278410         2.769408
 C        -2.359980         1.613641         3.856760
 C        -1.581092         0.654184         2.912221
 C        -0.083518         0.301621         2.420666
 H         0.719723         0.451739        -0.609593
 H        -2.070505         1.084888        -0.459397
 H        -2.367714        -0.143377         0.557472
 H        -0.782422         3.142081         0.542746
 H         0.055951         2.892265         2.293173
 H        -1.769470         2.243327         4.443832
 H        -3.029768         1.070125         4.486074
 H        -2.201910        -0.214493         2.822074
 H         0.737070         0.615007         3.027597
 H        -0.021881        -0.790132         2.323744
