19
Iteration:  3000
 O         0.858699         0.768038         0.190933
 C        -0.278197         0.960902         1.038478
 C        -1.710376         0.845023         0.489223
 C        -1.931338         1.685323         1.837978
 C        -0.615360         2.418078         1.459557
 O        -2.994805         2.234897         2.731831
 C        -2.401321         1.597124         3.951320
 C        -1.577907         0.648905         2.896097
 C        -0.096915         0.314112         2.402493
 H         0.621352         1.047648        -0.712294
 H        -1.761797         1.427596        -0.459250
 H        -2.239801        -0.195811         0.332812
 H        -0.478241         3.022572         0.569805
 H        -0.034915         2.969209         2.181811
 H        -1.823674         2.462136         4.458684
 H        -3.065027         0.982584         4.521831
 H        -2.369443        -0.085594         2.854740
 H         0.766337         0.677355         3.006016
 H        -0.158824        -0.769914         2.388801
