19
Iteration:  1054
 O         0.808572         0.692316         0.210827
 C        -0.255176         0.999201         0.972369
 C        -1.799908         0.946908         0.468764
 C        -1.986088         1.632377         1.829909
 C        -0.564536         2.439541         1.598455
 O        -2.970360         2.285063         2.674952
 C        -2.255280         1.595402         3.915977
 C        -1.590793         0.635851         2.862316
 C        -0.207117         0.271795         2.332673
 H         1.626179         0.753472         0.820697
 H        -1.878847         1.495932        -0.445558
 H        -2.335323         0.019338         0.383176
 H        -0.774349         3.195998         0.920300
 H         0.134258         2.812959         2.528240
 H        -1.594379         2.220126         4.399132
 H        -3.020589         1.194271         4.550319
 H        -2.206248        -0.232678         2.784002
 H         0.695933         0.651055         2.812821
 H        -0.217174        -0.782004         2.105164
