19
Iteration:  3174
 O         0.749556         0.661119         0.279557
 C        -0.267358         1.073573         1.096607
 C        -1.798820         0.940453         0.483761
 C        -1.917634         1.652423         1.848058
 C        -0.653512         2.542847         1.523508
 O        -2.944694         2.158332         2.613246
 C        -2.315809         1.609758         3.841580
 C        -1.490446         0.577142         2.949729
 C        -0.150324         0.313681         2.382120
 H         0.822627         1.220450        -0.560049
 H        -1.832645         1.440013        -0.475199
 H        -2.024956        -0.193520         0.462834
 H        -0.752944         3.118029         0.535277
 H         0.006374         3.020995         2.318296
 H        -1.667653         2.322305         4.389693
 H        -3.071459         1.206116         4.453698
 H        -2.189944        -0.320591         2.867479
 H         0.935439         0.558832         2.783164
 H        -0.040473        -0.787106         2.244948
