19
Iteration:  4072
 O         0.882424         0.705661         0.266180
 C        -0.205189         1.073287         1.065888
 C        -1.691958         0.879853         0.499615
 C        -2.009695         1.597289         1.824509
 C        -0.772567         2.375604         1.485538
 O        -3.011369         2.250582         2.689306
 C        -2.200748         1.687932         3.815293
 C        -1.568993         0.622098         2.915737
 C        -0.209136         0.239401         2.412815
 H         0.776470         1.208805        -0.536027
 H        -1.929853         1.624680        -0.387140
 H        -2.050014        -0.108476         0.160336
 H        -0.917915         3.180405         0.727389
 H        -0.277687         3.033708         2.402931
 H        -1.424287         2.400193         4.145406
 H        -2.663423         1.542858         4.756372
 H        -2.211948        -0.295085         2.974687
 H         0.672862         0.459079         2.975088
 H        -0.073368        -0.838693         2.068849
