19
Iteration:  1589
 O         0.781941         0.847671         0.120823
 C        -0.302231         0.999664         1.066939
 C        -1.855668         0.982287         0.451902
 C        -1.941004         1.719769         1.853435
 C        -0.548361         2.353583         1.573641
 O        -2.977093         2.132706         2.586201
 C        -2.321959         1.671733         3.892154
 C        -1.524401         0.630346         2.955646
 C        -0.105992         0.215952         2.462409
 H         0.852870        -0.083818        -0.004753
 H        -1.723523         1.286015        -0.592394
 H        -2.215635        -0.061418         0.523024
 H        -0.645450         3.267904         0.849449
 H         0.094022         2.838993         2.398339
 H        -1.657718         2.551337         4.202264
 H        -2.991657         1.239312         4.667084
 H        -2.243289        -0.262691         3.023458
 H         0.661671         0.763665         2.922533
 H         0.121364        -0.881134         2.421900
