19
Iteration:   781charge 0 multiplicity 1
 O         0.727790         0.705409         0.149959
 C        -0.219136         1.044990         1.097456
 C        -1.641686         0.897799         0.548474
 C        -1.888506         1.783154         1.843375
 C        -0.562454         2.480167         1.575155
 O        -2.947290         2.321498         2.683428
 C        -2.347775         1.555619         3.839243
 C        -1.675578         0.579746         2.836684
 C        -0.244885         0.120301         2.370332
 H         1.613218         1.088124         0.425307
 H        -1.749362         1.412517        -0.366404
 H        -2.012515        -0.091054         0.570848
 H        -0.729883         3.137072         0.619356
 H         0.157408         2.979987         2.314133
 H        -1.613638         2.184879         4.403539
 H        -3.236268         1.257853         4.396245
 H        -2.449916        -0.139892         2.696141
 H         0.547844         0.267521         3.111047
 H        -0.121264        -0.848132         1.967575
