19
Iteration:   863
 O         0.834933         0.799680         0.109385
 C        -0.172133         0.935551         1.080789
 C        -1.661412         0.867294         0.567052
 C        -1.953424         1.743186         1.802484
 C        -0.544898         2.403543         1.639337
 O        -2.995429         2.341658         2.715235
 C        -2.321801         1.659916         3.882176
 C        -1.656232         0.644686         2.805329
 C        -0.295547         0.023623         2.349319
 H         1.174064         1.718200        -0.043058
 H        -1.693352         1.239839        -0.506875
 H        -2.137599        -0.175600         0.504432
 H        -0.545575         3.267594         0.776658
 H        -0.084490         2.811532         2.583064
 H        -1.682631         2.430767         4.217190
 H        -2.963962         1.431498         4.722853
 H        -2.381430        -0.233573         2.783203
 H         0.497947         0.170464         3.100727
 H        -0.410960        -1.035942         1.950871
