19
Iteration:  3355
 O         0.863774         0.772409         0.173288
 C        -0.227627         0.985116         1.029308
 C        -1.772824         0.884794         0.499774
 C        -1.958467         1.659950         1.825877
 C        -0.592660         2.332138         1.511742
 O        -3.058387         2.285212         2.710552
 C        -2.277178         1.626950         3.863885
 C        -1.596565         0.644188         2.911471
 C        -0.127768         0.272053         2.412955
 H         0.682557         1.275984        -0.590852
 H        -1.807085         1.491973        -0.405778
 H        -2.040979        -0.060862         0.557820
 H        -0.635631         2.912242         0.634664
 H        -0.156576         2.934990         2.323199
 H        -1.728458         2.322990         4.457130
 H        -3.018550         1.106343         4.564863
 H        -2.212126        -0.241151         2.951132
 H         0.711879         0.626926         3.117604
 H        -0.105358        -0.933758         2.390945
