19
Iteration:  3198
 O         0.877349         0.696107         0.207806
 C        -0.213728         1.002705         1.054931
 C        -1.777033         0.913997         0.513601
 C        -1.994104         1.649222         1.844445
 C        -0.698753         2.433473         1.555046
 O        -3.053076         2.198684         2.692225
 C        -2.187887         1.669299         3.830941
 C        -1.577123         0.616627         2.817222
 C        -0.156026         0.279343         2.439674
 H         0.978649         1.316859        -0.536040
 H        -1.835350         1.550372        -0.346703
 H        -2.296856        -0.059144         0.367585
 H        -0.923116         3.155356         0.712241
 H        -0.067680         2.812085         2.376155
 H        -1.437639         2.378822         4.266204
 H        -2.899607         1.282624         4.551786
 H        -2.368924        -0.165756         2.746439
 H         0.727379         0.684040         3.150036
 H         0.127501        -0.835306         2.445951
