19
Iteration:  2774
 O         0.765587         0.746002         0.110092
 C        -0.215848         1.075049         1.086595
 C        -1.665242         0.729336         0.549831
 C        -1.995014         1.629019         1.849060
 C        -0.699196         2.480512         1.502915
 O        -2.957899         2.310811         2.668212
 C        -2.183626         1.619167         3.851806
 C        -1.630455         0.539987         2.871050
 C        -0.188687         0.316106         2.460810
 H         1.151508         1.542333        -0.215033
 H        -1.738999         1.077293        -0.482916
 H        -2.109023        -0.225059         0.564456
 H        -1.033929         3.248927         0.752842
 H        -0.200324         2.925322         2.399864
 H        -1.395930         2.348314         4.256844
 H        -2.977598         1.433700         4.734329
 H        -2.319824        -0.345213         2.840464
 H         0.613725         0.476927         3.197227
 H        -0.038805        -0.843248         2.233028
