19
Iteration:  3446
 O         0.863190         0.800136         0.233767
 C        -0.211121         0.982242         1.058023
 C        -1.839541         0.891946         0.595579
 C        -2.006366         1.622037         1.837131
 C        -0.617903         2.435063         1.493768
 O        -2.962147         2.258979         2.624925
 C        -2.235735         1.623850         3.821405
 C        -1.608299         0.583676         2.866030
 C        -0.149773         0.255530         2.445087
 H         0.846404         1.109122        -0.703601
 H        -1.773315         1.503013        -0.303996
 H        -2.240101        -0.191060         0.549696
 H        -0.959276         3.199276         0.690466
 H        -0.064045         2.950301         2.297850
 H        -1.474579         2.295522         4.426587
 H        -2.922973         1.273536         4.572575
 H        -2.313872        -0.304108         2.844078
 H         0.680171         0.540303         3.135633
 H        -0.229064        -0.834727         2.151719
