19
Iteration:  2559
 O         0.802989         0.877515         0.151388
 C        -0.253566         0.994366         1.039616
 C        -1.813187         0.822758         0.569949
 C        -1.961890         1.646148         1.849411
 C        -0.638800         2.327832         1.648952
 O        -3.014460         2.275776         2.652507
 C        -2.262758         1.731091         3.823765
 C        -1.515379         0.674093         2.865947
 C        -0.151219         0.205371         2.312602
 H         1.498960         0.236990         0.359709
 H        -1.933432         1.226672        -0.542833
 H        -2.297347        -0.189189         0.681163
 H        -0.790095         3.012129         0.808468
 H        -0.043010         2.611521         2.469165
 H        -1.612789         2.449409         4.446325
 H        -2.969977         1.196248         4.498022
 H        -2.109446        -0.292111         2.882895
 H         0.704668         0.592567         2.829047
 H         0.030590        -0.885121         2.179634
