19
Iteration:  1609
 O         0.827270         0.774658         0.084250
 C        -0.200098         1.009471         1.046901
 C        -1.729342         0.937320         0.509962
 C        -1.996443         1.581908         1.929395
 C        -0.664030         2.403471         1.567145
 O        -3.041230         2.179814         2.693517
 C        -2.267239         1.712530         3.797890
 C        -1.548684         0.630935         2.924865
 C        -0.152467         0.276102         2.407532
 H         1.076282        -0.151796         0.142342
 H        -1.877018         1.877302        -0.099924
 H        -2.211981         0.172908        -0.167714
 H        -0.795169         3.214301         0.838088
 H        -0.006356         2.843898         2.376107
 H        -1.438597         2.475899         4.156010
 H        -2.905363         1.281988         4.600971
 H        -2.307302        -0.208722         2.909457
 H         0.669087         0.686706         2.961105
 H        -0.144693        -0.865781         2.434678
