19
Iteration:   144charge 0 multiplicity 1
 O         0.804140         0.688799         0.164084
 C        -0.259067         0.948253         1.042936
 C        -1.584574         1.121617         0.395723
 C        -1.934860         1.745767         1.882936
 C        -0.510313         2.426310         1.715877
 O        -2.987690         2.308074         2.629029
 C        -2.372760         1.589579         3.865746
 C        -1.702406         0.646758         2.836768
 C        -0.287573         0.075705         2.389135
 H         1.518610         0.280199         0.653050
 H        -1.332263         1.872922        -0.339767
 H        -2.210287         0.355803        -0.075319
 H        -0.363263         3.159898         1.008088
 H         0.005178         2.740340         2.705331
 H        -1.734791         2.152688         4.508685
 H        -3.131201         1.136684         4.501851
 H        -2.327997        -0.230450         2.629812
 H         0.644481         0.181165         2.891810
 H        -0.381090        -1.022430         2.074233
