19
Iteration:  2554
 O         0.820685         0.843874         0.139196
 C        -0.246206         0.985108         1.054813
 C        -1.805776         0.812577         0.606048
 C        -1.989322         1.672181         1.838277
 C        -0.641601         2.387517         1.634278
 O        -3.025234         2.286988         2.673787
 C        -2.285560         1.687970         3.813909
 C        -1.508532         0.671865         2.840257
 C        -0.123003         0.193081         2.300581
 H         1.530377         0.355785         0.620716
 H        -2.086847         1.177636        -0.315270
 H        -2.270003        -0.131828         0.813292
 H        -0.815481         3.038977         0.772925
 H         0.108765         2.647564         2.459775
 H        -1.644167         2.411781         4.239422
 H        -2.963710         1.202268         4.512680
 H        -2.207553        -0.165764         2.810037
 H         0.828378         0.541560         2.807045
 H        -0.073366        -0.865808         2.009812
