19
Iteration:  4024
 O         0.860961         0.788564         0.189835
 C        -0.237324         0.937278         1.042946
 C        -1.787886         0.864055         0.501883
 C        -1.970540         1.669818         1.853900
 C        -0.615264         2.414128         1.481371
 O        -3.032324         2.258153         2.655579
 C        -2.296485         1.632441         3.845556
 C        -1.598085         0.641111         2.925363
 C        -0.080129         0.224776         2.497308
 H         0.835725         1.554353        -0.450526
 H        -1.849550         1.292151        -0.431061
 H        -2.389982        -0.106516         0.381082
 H        -0.719236         3.079748         0.551457
 H         0.023466         2.988567         2.121321
 H        -1.598048         2.318235         4.317107
 H        -3.062995         1.280632         4.666574
 H        -2.263277        -0.225744         2.831260
 H         0.914631         0.517802         3.059676
 H        -0.181374        -0.833298         2.451838
