19
Iteration:  3213charge 0 multiplicity 1
 O         0.935961         0.791714         0.186781
 C        -0.251094         0.979176         1.015070
 C        -1.746042         0.848393         0.454424
 C        -2.017905         1.648804         1.812471
 C        -0.557620         2.349832         1.554907
 O        -3.010828         2.210617         2.762352
 C        -2.250002         1.688831         3.842798
 C        -1.682136         0.609221         2.921520
 C        -0.235337         0.295059         2.372653
 H         0.759505         1.444996        -0.464063
 H        -1.899005         1.355804        -0.555994
 H        -2.059030        -0.134611         0.601508
 H        -0.655486         2.983885         0.728251
 H        -0.094820         2.879991         2.373375
 H        -1.563529         2.522559         4.097180
 H        -2.788213         1.404054         4.843977
 H        -2.168977        -0.321729         2.945594
 H         0.482549         0.807060         2.988782
 H         0.004755        -0.797078         2.372926
