19
Iteration:  3527charge 0 multiplicity 1
 O         0.840991         0.715350         0.216714
 C        -0.228138         1.027184         1.047342
 C        -1.774425         0.900030         0.536546
 C        -1.945459         1.635305         1.839516
 C        -0.647817         2.396320         1.568942
 O        -3.026849         2.189188         2.602018
 C        -2.247842         1.637432         3.864142
 C        -1.560733         0.686991         2.941979
 C        -0.166241         0.293139         2.381850
 H         0.935604         1.360678        -0.568403
 H        -2.033654         1.453256        -0.430627
 H        -2.305540        -0.116296         0.421831
 H        -0.693120         3.185000         0.807966
 H         0.086569         2.638059         2.398465
 H        -1.555171         2.490821         4.193701
 H        -2.970297         1.167348         4.615148
 H        -2.204104        -0.212544         2.865207
 H         0.645363         0.581891         3.039194
 H        -0.145614        -0.722797         2.198583
