19
Iteration:  3484charge 0 multiplicity 1
 O         0.834927         0.690455         0.171650
 C        -0.235663         1.057030         1.047003
 C        -1.697221         0.901559         0.537894
 C        -1.972555         1.660012         1.820042
 C        -0.589147         2.411042         1.493419
 O        -3.022171         2.213077         2.660485
 C        -2.235031         1.610779         3.903813
 C        -1.597590         0.656761         2.890525
 C        -0.181330         0.296018         2.481207
 H         0.611126         1.106199        -0.727211
 H        -1.726411         1.463885        -0.439828
 H        -2.169926        -0.000320         0.210177
 H        -0.898027         3.161376         0.832542
 H        -0.244042         2.801149         2.466580
 H        -1.848183         2.446701         4.476959
 H        -3.017396         1.003856         4.514008
 H        -2.196665        -0.240965         2.818491
 H         0.715732         0.630368         2.986499
 H        -0.184391        -0.731032         2.266536
