19
Iteration:   506
 O         0.787819         0.754361         0.196763
 C        -0.251986         0.989754         1.087975
 C        -1.725920         1.023641         0.514956
 C        -1.921826         1.664521         1.840140
 C        -0.514193         2.353384         1.637499
 O        -2.946225         2.256473         2.562502
 C        -2.259461         1.691595         3.780449
 C        -1.669273         0.575165         2.917811
 C        -0.287745         0.115666         2.401396
 H         1.342173         1.524196         0.054828
 H        -1.640866         1.732697        -0.285622
 H        -2.316921         0.148431         0.335509
 H        -0.576976         3.059512         0.902961
 H        -0.046240         2.592207         2.566529
 H        -1.576610         2.437986         4.162227
 H        -3.084950         1.432134         4.447028
 H        -2.393520        -0.233070         3.004245
 H         0.559631         0.400331         3.008484
 H        -0.229509        -1.017804         2.289905
