19
Iteration:  3854
 O         0.843562         0.681236         0.214656
 C        -0.205078         1.062915         1.044512
 C        -1.809758         0.884918         0.524144
 C        -1.997095         1.621066         1.848049
 C        -0.564112         2.449613         1.554398
 O        -3.027187         2.188445         2.668330
 C        -2.314920         1.680161         3.836672
 C        -1.535196         0.690798         2.865814
 C        -0.168129         0.263775         2.433903
 H         0.971104         1.218102        -0.662745
 H        -2.086819         1.367129        -0.448826
 H        -1.888692        -0.233229         0.487613
 H        -0.652366         3.120395         0.779173
 H        -0.159961         2.946743         2.475998
 H        -1.580228         2.485428         4.140424
 H        -2.815049         1.056368         4.506916
 H        -2.154080        -0.262745         2.786924
 H         0.668625         0.689889         3.032449
 H        -0.296355        -0.925031         2.291017
