19
Iteration:  2977
 O         0.883103         0.682365         0.206672
 C        -0.219588         1.064336         1.069710
 C        -1.872448         0.940032         0.610949
 C        -1.904591         1.681674         1.850027
 C        -0.635285         2.489485         1.500864
 O        -3.022265         2.169569         2.637792
 C        -2.254225         1.586661         3.763118
 C        -1.557636         0.594299         2.862936
 C        -0.132473         0.249880         2.484496
 H         0.698596         1.040182        -0.655307
 H        -2.204554         1.658426        -0.114895
 H        -2.336667        -0.071648         0.432451
 H        -0.819284         3.152870         0.662293
 H        -0.070496         3.085642         2.215727
 H        -1.572652         2.421346         4.155057
 H        -2.961509         1.133614         4.451830
 H        -2.334626        -0.143600         2.828186
 H         0.658784         0.828139         3.071110
 H         0.027825        -0.801635         2.541574
