19
Iteration:  1216
 O         0.731619         0.784563         0.054191
 C        -0.219630         0.975226         1.016930
 C        -1.678716         0.912736         0.584313
 C        -1.968535         1.569308         1.895090
 C        -0.612858         2.327078         1.512691
 O        -2.944176         2.284565         2.650583
 C        -2.430526         1.723735         3.825836
 C        -1.581966         0.619329         3.034176
 C        -0.101157         0.242256         2.358726
 H         1.552606         1.143189         0.541248
 H        -1.912197         1.550766        -0.267454
 H        -2.052297        -0.113504         0.402460
 H        -0.815142         2.972889         0.754693
 H         0.040754         2.851181         2.253877
 H        -1.715602         2.475673         4.434267
 H        -3.174670         1.313875         4.490867
 H        -2.180878        -0.268247         3.089300
 H         0.814592         0.578241         2.887513
 H        -0.102460        -0.827790         2.197866
