19
Iteration:   520
 O         0.824365         0.730710         0.176182
 C        -0.177622         1.014267         1.095645
 C        -1.775642         0.947031         0.433098
 C        -1.979132         1.531605         1.841908
 C        -0.548774         2.407631         1.718814
 O        -2.925614         2.397109         2.636185
 C        -2.360649         1.785637         3.811074
 C        -1.672117         0.530477         2.885754
 C        -0.215053         0.063632         2.382521
 H         1.319852         1.564400         0.286570
 H        -2.038776         1.638122        -0.403561
 H        -1.978780        -0.146490         0.164819
 H        -0.700736         3.223291         0.837864
 H         0.110345         2.830198         2.390540
 H        -1.488665         2.380721         4.192937
 H        -3.021891         1.379670         4.563737
 H        -2.379518        -0.287540         2.666248
 H         0.693958         0.178349         3.088998
 H        -0.212094        -0.950920         1.991029
