19
Iteration:  2390charge 0 multiplicity 1
 O         0.843267         0.864213         0.176045
 C        -0.241192         1.000169         1.072692
 C        -1.815489         0.993566         0.518031
 C        -1.929980         1.646968         1.840363
 C        -0.656122         2.454316         1.492457
 O        -2.909201         2.231589         2.710292
 C        -2.258877         1.582122         3.830444
 C        -1.661160         0.599414         2.883093
 C        -0.193471         0.167141         2.401193
 H         1.353025         0.034177         0.378527
 H        -1.839500         1.596099        -0.371531
 H        -2.276808        -0.011700         0.290149
 H        -0.768946         3.149827         0.622949
 H        -0.108255         2.952733         2.365317
 H        -1.622027         2.300053         4.352854
 H        -2.969809         1.040885         4.462053
 H        -2.299842        -0.300090         2.843755
 H         0.703379         0.476748         3.019924
 H        -0.102748        -0.867975         2.196586
