19
Iteration:   136charge 0 multiplicity 1
 O         0.801680         0.644550         0.169288
 C        -0.216365         0.902207         1.046909
 C        -1.612600         1.203540         0.400970
 C        -1.890906         1.796824         1.908164
 C        -0.583725         2.392158         1.746037
 O        -2.985351         2.295847         2.620637
 C        -2.374535         1.597508         3.841155
 C        -1.664454         0.637236         2.857473
 C        -0.274803         0.040448         2.330882
 H         1.631927         0.540927         0.706712
 H        -1.463287         1.981847        -0.422158
 H        -2.164085         0.266463         0.137839
 H        -0.581291         3.207950         1.016618
 H         0.023174         2.633682         2.634227
 H        -1.771782         2.312532         4.432759
 H        -3.233324         1.084905         4.324918
 H        -2.514834        -0.081536         2.603547
 H         0.519409         0.464928         2.922613
 H        -0.163746        -1.078249         2.221886
