19
Iteration:  3354
 O         0.873469         0.766759         0.165540
 C        -0.230982         0.990274         1.034187
 C        -1.770396         0.887892         0.492022
 C        -1.959746         1.662596         1.816527
 C        -0.601801         2.333205         1.517944
 O        -3.056072         2.282856         2.715879
 C        -2.286987         1.630656         3.874777
 C        -1.593130         0.644520         2.904044
 C        -0.120687         0.265886         2.414988
 H         0.693446         1.265154        -0.610759
 H        -1.841466         1.477497        -0.430011
 H        -2.056286        -0.067731         0.610299
 H        -0.644773         2.925294         0.649117
 H        -0.130928         2.930570         2.311763
 H        -1.743736         2.287081         4.460230
 H        -3.026403         1.136822         4.572485
 H        -2.208637        -0.226469         2.947485
 H         0.720670         0.650502         3.112716
 H        -0.136067        -0.933207         2.422074
