19
Iteration:  2492charge 0 multiplicity 1
 O         0.835861         0.725407         0.161291
 C        -0.246256         1.001384         1.041794
 C        -1.848672         0.874980         0.487921
 C        -1.931489         1.673410         1.778970
 C        -0.623218         2.413788         1.697252
 O        -2.957986         2.273301         2.654249
 C        -2.248317         1.590320         3.792447
 C        -1.586985         0.595945         2.882773
 C        -0.127856         0.298381         2.440551
 H         0.590818         1.200982        -0.663479
 H        -2.052358         1.405895        -0.547546
 H        -2.497595        -0.006591         0.688926
 H        -0.583590         3.377708         1.210209
 H        -0.136781         2.525344         2.616212
 H        -1.604667         2.361389         4.300128
 H        -3.036335         1.287510         4.577393
 H        -2.204087        -0.325989         2.663577
 H         0.576344         0.789327         3.031274
 H         0.198712        -0.757384         2.413444
