19
Iteration:  2233charge 0 multiplicity 1
 O         0.814421         0.873530        -0.043888
 C        -0.254088         1.015470         0.961053
 C        -1.777118         0.874135         0.483595
 C        -1.982203         1.677425         1.835407
 C        -0.602107         2.354381         1.652080
 O        -2.977625         2.228618         2.696931
 C        -2.307345         1.627784         3.879759
 C        -1.637914         0.575488         2.921047
 C        -0.134882         0.274938         2.537512
 H         1.574584         0.467887         0.381430
 H        -1.716049         1.328247        -0.497843
 H        -2.148715        -0.076233         0.498656
 H        -0.647126         3.293000         1.036166
 H        -0.137321         2.531608         2.705312
 H        -1.543295         2.265500         4.212443
 H        -2.979341         1.284679         4.630555
 H        -2.373622        -0.187455         2.717191
 H         0.701124         0.689003         3.051369
 H         0.159715        -0.801027         2.361776
