19
Iteration:  2937charge 0 multiplicity 1
 O         0.866297         0.745915         0.168021
 C        -0.235408         0.965908         1.006331
 C        -1.672456         0.859839         0.443560
 C        -2.018917         1.557346         1.844166
 C        -0.717833         2.434684         1.563041
 O        -3.024511         2.247087         2.729841
 C        -2.220025         1.713269         3.861332
 C        -1.560434         0.695842         2.917233
 C        -0.201254         0.247228         2.451534
 H         1.030342         1.482774        -0.507324
 H        -1.940259         1.497735        -0.495164
 H        -2.007479        -0.192883         0.053480
 H        -0.720387         3.084317         0.662045
 H        -0.271116         2.825123         2.490720
 H        -1.656293         2.557698         4.320061
 H        -2.769715         1.100619         4.566049
 H        -2.172119        -0.227900         2.855004
 H         0.611672         0.393056         3.091517
 H        -0.120038        -0.880511         2.358251
