19
Iteration:   859charge 0 multiplicity 1
 O         0.827135         0.789053         0.105267
 C        -0.164708         0.978950         1.096727
 C        -1.670041         0.887568         0.538667
 C        -1.960694         1.715478         1.793475
 C        -0.569742         2.406083         1.662203
 O        -2.985825         2.342062         2.685566
 C        -2.282945         1.663725         3.898968
 C        -1.681843         0.625276         2.798507
 C        -0.276202         0.009338         2.361863
 H         1.227842         1.660219        -0.065080
 H        -1.705409         1.190581        -0.484279
 H        -2.049201        -0.116603         0.563108
 H        -0.618677         3.285173         0.818163
 H        -0.128597         2.821766         2.529796
 H        -1.683879         2.533362         4.304452
 H        -2.944663         1.391060         4.762432
 H        -2.492895        -0.106904         2.742251
 H         0.567431         0.022671         3.087159
 H        -0.419912        -0.996973         2.082294
