19
Iteration:  3582
 O         0.881005         0.806605         0.291805
 C        -0.258630         1.007591         1.059676
 C        -1.826202         0.855618         0.494311
 C        -1.937059         1.655976         1.802290
 C        -0.651604         2.441047         1.473776
 O        -2.961247         2.237092         2.704144
 C        -2.205734         1.701348         3.739197
 C        -1.577354         0.566488         2.917471
 C        -0.204576         0.173523         2.412615
 H         0.807560         1.479159        -0.418108
 H        -2.285293         1.190143        -0.476502
 H        -2.259925        -0.169515         0.638092
 H        -0.773770         3.227698         0.733241
 H        -0.105222         2.658145         2.467551
 H        -1.642295         2.532864         4.316166
 H        -2.865565         1.240129         4.591622
 H        -2.283957        -0.298042         2.934543
 H         0.499303         0.590415         3.126223
 H         0.071167        -0.751435         2.163405
