19
Iteration:  4975
 O         0.817995         0.784278         0.085778
 C        -0.229371         1.008341         1.017187
 C        -1.743905         0.918768         0.550191
 C        -1.994651         1.571245         1.840620
 C        -0.654578         2.425644         1.549396
 O        -3.032108         2.156628         2.600492
 C        -2.290648         1.661576         3.892382
 C        -1.529198         0.692825         2.956887
 C        -0.108723         0.363024         2.476984
 H         1.078283        -0.202346        -0.013397
 H        -1.907458         1.493253        -0.454510
 H        -2.261239        -0.005778         0.334928
 H        -0.983361         3.076159         0.795490
 H        -0.231204         2.904294         2.478428
 H        -1.554582         2.416595         4.313171
 H        -2.885811         1.140565         4.731260
 H        -2.072229        -0.223943         2.907432
 H         0.882370         0.619421         2.881327
 H        -0.089577        -0.744878         2.438284
