19
Iteration:  2266charge 0 multiplicity 1
 O         0.787419         0.813634         0.162853
 C        -0.244662         1.014863         1.108993
 C        -1.772343         0.916595         0.536160
 C        -1.967088         1.687595         1.841585
 C        -0.723191         2.460056         1.490426
 O        -2.908275         2.203820         2.717940
 C        -2.263094         1.628779         3.827882
 C        -1.608437         0.588053         2.893570
 C        -0.148187         0.149435         2.378335
 H         1.636708         1.233679         0.517641
 H        -1.755584         1.338067        -0.473199
 H        -2.167357        -0.032908         0.465764
 H        -0.770179         3.168920         0.600095
 H        -0.174007         3.040341         2.358911
 H        -1.593909         2.356020         4.239639
 H        -2.885309         1.300173         4.627667
 H        -2.276926        -0.198950         2.604235
 H         0.737939         0.243625         2.982835
 H        -0.160126        -0.854597         1.864082
