19
Iteration:  4944charge 0 multiplicity 1
 O         0.799578         0.891379         0.253107
 C        -0.279423         1.032676         1.062815
 C        -1.808823         0.752913         0.514469
 C        -1.956584         1.641469         1.751977
 C        -0.544576         2.428818         1.406877
 O        -2.979654         2.156767         2.729903
 C        -2.234235         1.680001         3.862818
 C        -1.631591         0.591029         2.864877
 C        -0.166897         0.326874         2.483465
 H         0.814950         0.158384        -0.307947
 H        -1.884586         1.271531        -0.523988
 H        -2.367424        -0.186089         0.636332
 H        -0.628346         3.311222         0.576252
 H        -0.050841         2.976528         2.325248
 H        -1.403745         2.275431         4.161056
 H        -2.737432         1.250590         4.642931
 H        -2.257648        -0.276047         2.675365
 H         0.561523         0.905684         3.099575
 H         0.235167        -0.680183         2.425280
