19
Iteration:  2303charge 0 multiplicity 1
 O         0.894833         0.737485         0.186441
 C        -0.251595         1.028373         1.036410
 C        -1.736985         0.943991         0.459951
 C        -2.006437         1.668910         1.837614
 C        -0.627064         2.353865         1.569393
 O        -2.999715         2.179005         2.767810
 C        -2.259387         1.649521         3.883363
 C        -1.640156         0.591271         2.861709
 C        -0.198736         0.293999         2.334290
 H         1.043450         1.549081        -0.332365
 H        -1.800178         1.608683        -0.409127
 H        -2.203629        -0.108621         0.360001
 H        -0.649429         3.118965         0.814895
 H         0.058484         2.514667         2.329635
 H        -1.542845         2.498499         4.070959
 H        -2.865077         1.327559         4.760518
 H        -2.374798        -0.237185         2.917503
 H         0.655982         0.649826         2.987977
 H        -0.063419        -0.732002         2.244389
