19
Iteration:  1294
 O         0.887756         0.662782         0.175857
 C        -0.228860         1.031515         0.971375
 C        -1.811407         0.832892         0.511283
 C        -1.971000         1.658120         1.893425
 C        -0.743496         2.485065         1.529623
 O        -2.904993         2.242046         2.712173
 C        -2.282738         1.668662         3.831167
 C        -1.539417         0.635586         2.893399
 C        -0.215008         0.255272         2.366280
 H         1.633786         1.134159         0.673048
 H        -1.920842         1.659011        -0.211377
 H        -2.324069        -0.052244         0.126889
 H        -0.914600         3.146568         0.679117
 H        -0.254437         3.013179         2.364006
 H        -1.651267         2.445643         4.374780
 H        -3.076974         1.213578         4.467820
 H        -2.220966        -0.223939         2.912860
 H         0.686994         0.444839         2.960516
 H        -0.237503        -0.849268         2.283163
