19
Iteration:  3270
 O         0.909113         0.743032         0.184890
 C        -0.305786         1.003210         1.014688
 C        -1.777631         0.863441         0.543893
 C        -1.994544         1.650157         1.858580
 C        -0.596897         2.411224         1.559217
 O        -3.014000         2.219603         2.672698
 C        -2.257792         1.668428         3.885285
 C        -1.603732         0.641378         2.870988
 C        -0.151893         0.263323         2.391317
 H         0.981877         1.439359        -0.544188
 H        -1.911493         1.366791        -0.476595
 H        -1.987636        -0.246721         0.232851
 H        -0.937603         3.159410         0.845116
 H         0.075594         2.727028         2.403039
 H        -1.601886         2.551124         4.115355
 H        -2.897004         1.303651         4.742738
 H        -2.347440        -0.212614         2.853428
 H         0.578981         0.522519         3.100141
 H        -0.077091        -0.810742         2.323872
