19
Iteration:  3915charge 0 multiplicity 1
 O         0.883558         0.759789         0.225727
 C        -0.231830         0.999290         1.024286
 C        -1.793157         0.790867         0.514644
 C        -1.958940         1.618276         1.837825
 C        -0.721045         2.364938         1.621765
 O        -2.967753         2.293680         2.630208
 C        -2.225217         1.696928         3.848206
 C        -1.574358         0.608385         2.863988
 C        -0.200705         0.287063         2.375558
 H         0.975395         1.604531        -0.374158
 H        -1.643885         1.155366        -0.459654
 H        -2.253857        -0.260128         0.661773
 H        -0.915560         3.237940         0.815018
 H        -0.282818         2.801026         2.523260
 H        -1.523282         2.463176         4.182422
 H        -2.863341         1.386682         4.775002
 H        -2.300348        -0.181329         2.711412
 H         0.677027         0.473243         2.970158
 H        -0.119175        -0.708934         2.265961
