19
Iteration:  1365
 O         0.739820         0.743730         0.081001
 C        -0.236517         1.003755         1.039856
 C        -1.740190         0.926614         0.520790
 C        -1.916528         1.620474         1.845445
 C        -0.560389         2.406611         1.582219
 O        -3.072383         2.217142         2.656683
 C        -2.303056         1.700161         3.776544
 C        -1.539902         0.629002         2.969886
 C        -0.163361         0.194183         2.456464
 H         1.631160         1.120567         0.379179
 H        -1.821975         1.641265        -0.305410
 H        -2.260239        -0.014752         0.301562
 H        -0.723584         3.271183         0.914179
 H         0.119444         2.715913         2.460261
 H        -1.486908         2.436051         4.095188
 H        -3.135597         1.477008         4.560721
 H        -2.239429        -0.201553         2.917852
 H         0.721012         0.489456         3.085215
 H        -0.034419        -0.864731         2.289091
