19
Iteration:  1467
 O         0.768459         0.816469         0.107031
 C        -0.164603         1.008110         1.048161
 C        -1.678191         0.888754         0.526066
 C        -1.930790         1.575111         1.856595
 C        -0.654428         2.407328         1.574143
 O        -3.061876         2.291835         2.646123
 C        -2.299891         1.746312         3.896459
 C        -1.624848         0.615447         2.946566
 C        -0.101550         0.120606         2.339291
 H         1.362053         0.124893         0.321025
 H        -1.811405         1.531444        -0.364010
 H        -1.988630        -0.143389         0.318532
 H        -0.895345         3.257239         0.780028
 H        -0.125972         3.055665         2.444407
 H        -1.759470         2.673670         4.304570
 H        -2.905148         1.315543         4.687694
 H        -2.442114        -0.157848         3.016091
 H         0.740748         0.480602         2.894827
 H        -0.093852        -0.988086         2.095866
