19
Iteration:  4063
 O         0.904118         0.712465         0.281157
 C        -0.269512         1.044458         0.988793
 C        -1.756737         0.840436         0.451482
 C        -1.966510         1.623097         1.810976
 C        -0.753204         2.487826         1.552718
 O        -3.011959         2.240278         2.668890
 C        -2.182258         1.704820         3.880030
 C        -1.606115         0.588750         2.922840
 C        -0.156512         0.236057         2.438045
 H         1.083122         1.180448        -0.519433
 H        -1.962109         1.472574        -0.525310
 H        -2.088172        -0.174975         0.425949
 H        -1.019051         3.105903         0.713522
 H        -0.154527         2.901341         2.494818
 H        -1.288050         2.404735         3.956257
 H        -2.848364         1.406652         4.604750
 H        -2.274590        -0.297016         2.905055
 H         0.769607         0.514953         2.891134
 H        -0.264021        -0.847145         2.123755
