19
Iteration:  2625charge 0 multiplicity 1
 O         0.764172         0.696755         0.260112
 C        -0.285000         1.053141         0.990097
 C        -1.796561         0.772502         0.550335
 C        -1.970830         1.687917         1.799872
 C        -0.617224         2.429531         1.547881
 O        -3.016156         2.198337         2.711148
 C        -2.275533         1.659334         3.847683
 C        -1.462864         0.712661         2.869243
 C        -0.098232         0.314623         2.336056
 H         1.187462         1.458585        -0.159033
 H        -1.879616         1.193448        -0.548836
 H        -2.091847        -0.328900         0.612965
 H        -0.767839         3.231597         0.819748
 H        -0.172763         2.606157         2.489285
 H        -1.650755         2.459799         4.354506
 H        -2.994259         1.189030         4.496737
 H        -2.165841        -0.168449         2.838366
 H         0.843682         0.441846         2.867379
 H        -0.266088        -0.742988         2.198566
