19
Iteration:   416
 O         0.936778         0.836634         0.221357
 C        -0.165781         0.952387         1.126083
 C        -1.777189         0.938550         0.510527
 C        -1.964481         1.797368         1.852844
 C        -0.478807         2.282229         1.562670
 O        -2.951674         2.394565         2.664891
 C        -2.374436         1.538539         3.885904
 C        -1.760044         0.614556         2.793877
 C        -0.283603         0.165582         2.390368
 H         0.617673         0.499663        -0.578099
 H        -1.520249         1.576553        -0.349304
 H        -2.254872         0.007857         0.222149
 H        -0.590735         2.843397         0.720947
 H         0.173710         2.549498         2.512031
 H        -1.444603         2.002550         4.313577
 H        -3.130334         1.189183         4.650793
 H        -2.352982        -0.272684         2.478522
 H         0.585741         0.643312         2.915729
 H        -0.252435        -0.976933         2.274673
