19
Iteration:  3091charge 0 multiplicity 1
 O         0.907473         0.737080         0.231613
 C        -0.210586         1.091189         1.009119
 C        -1.796458         0.876939         0.514942
 C        -1.952692         1.577952         1.819198
 C        -0.722813         2.447949         1.566483
 O        -3.016371         2.189318         2.714119
 C        -2.206005         1.751927         3.828691
 C        -1.589829         0.614371         2.884974
 C        -0.171198         0.183850         2.374922
 H         1.075479         1.314141        -0.495928
 H        -1.946769         1.373345        -0.516868
 H        -2.168043        -0.143981         0.526138
 H        -0.969337         3.287945         0.943322
 H        -0.114132         2.860281         2.331889
 H        -1.718827         2.684061         4.137724
 H        -2.796609         1.250546         4.643324
 H        -2.197328        -0.277359         2.934210
 H         0.557967         0.430259         3.057018
 H        -0.243531        -0.916808         2.132907
