19
Iteration:  1576charge 0 multiplicity 1
 O         0.785858         0.882158         0.129642
 C        -0.209130         0.951222         1.061452
 C        -1.802614         0.832196         0.621967
 C        -1.904800         1.675366         1.835204
 C        -0.551070         2.415723         1.576190
 O        -3.042209         2.214095         2.651174
 C        -2.275651         1.628591         3.810724
 C        -1.561115         0.686126         2.861056
 C        -0.160987         0.265119         2.416974
 H         0.816820        -0.040337        -0.265025
 H        -1.962622         1.484524        -0.274083
 H        -2.408654        -0.093760         0.543677
 H        -0.528851         3.007866         0.671353
 H         0.127115         2.661118         2.432312
 H        -1.743379         2.442550         4.448579
 H        -3.045931         1.184980         4.476793
 H        -2.247628        -0.165518         2.614667
 H         0.655840         0.612094         3.015681
 H        -0.038334        -0.856799         2.440240
