19
Iteration:   867
 O         0.846011         0.811483         0.118950
 C        -0.194954         0.908057         1.070972
 C        -1.666226         0.840003         0.563469
 C        -1.936773         1.762716         1.824738
 C        -0.523700         2.407722         1.606113
 O        -3.002845         2.331912         2.738047
 C        -2.350304         1.661151         3.839868
 C        -1.647607         0.651631         2.837699
 C        -0.309244         0.048698         2.333375
 H         1.109277         1.712743        -0.024379
 H        -1.693296         1.347761        -0.401373
 H        -2.189498        -0.099208         0.492312
 H        -0.455771         3.043812         0.895718
 H        -0.026985         2.755867         2.551344
 H        -1.514269         2.379523         4.221919
 H        -3.063794         1.358078         4.642807
 H        -2.258971        -0.221454         2.779434
 H         0.454831         0.276663         3.069860
 H        -0.369257        -0.987613         1.946294
