19
Iteration:  4331charge 0 multiplicity 1
 O         0.840356         0.791015         0.230968
 C        -0.220898         0.980655         1.073392
 C        -1.838918         0.848458         0.538169
 C        -1.933482         1.705605         1.787382
 C        -0.627957         2.421092         1.460927
 O        -2.963818         2.243173         2.643516
 C        -2.238169         1.567107         3.827972
 C        -1.606144         0.638959         2.929067
 C        -0.180618         0.242950         2.516284
 H         0.671728         1.154880        -0.710469
 H        -1.768083         1.515469        -0.334609
 H        -2.290086        -0.153436         0.494716
 H        -0.766793         3.221968         0.507536
 H        -0.210323         3.018106         2.278755
 H        -1.632192         2.381412         4.283335
 H        -2.884414         1.090266         4.662763
 H        -2.321318        -0.203441         2.738813
 H         0.741832         0.645797         3.017821
 H         0.129276        -0.859080         2.278963
