19
Iteration:   165charge 0 multiplicity 1
 O         0.855449         0.805620         0.197949
 C        -0.084283         1.031583         1.129121
 C        -1.729009         1.066031         0.439052
 C        -1.921557         1.716370         1.838905
 C        -0.447484         2.369264         1.668805
 O        -2.962982         2.327284         2.716724
 C        -2.331346         1.607827         3.746827
 C        -1.800784         0.581967         2.793903
 C        -0.378431         0.063949         2.366518
 H         1.238703        -0.143644         0.257784
 H        -1.754731         1.547187        -0.505863
 H        -2.072085         0.053462         0.506170
 H        -0.464223         3.161738         0.999724
 H         0.129924         2.689586         2.624607
 H        -1.597901         2.178864         4.315223
 H        -3.060062         1.197707         4.430571
 H        -2.555679        -0.155470         2.549002
 H         0.297528         0.318948         3.175096
 H        -0.188130        -0.986655         2.015547
