19
Iteration:   944charge 0 multiplicity 1
 O         0.847276         0.676128         0.222507
 C        -0.213594         0.955013         1.032288
 C        -1.702217         0.946045         0.470025
 C        -1.880061         1.802913         1.833114
 C        -0.556851         2.552838         1.543934
 O        -2.988013         2.190719         2.727743
 C        -2.254503         1.546982         3.913913
 C        -1.705297         0.650914         2.838815
 C        -0.318629         0.188936         2.391471
 H         0.618221         0.964248        -0.640974
 H        -1.664311         1.549048        -0.420198
 H        -2.163419        -0.004900         0.346666
 H        -0.377392         3.195585         0.782885
 H         0.058207         2.943696         2.507705
 H        -1.682227         2.350071         4.391339
 H        -2.997368         1.038167         4.541306
 H        -2.516649        -0.008074         2.604095
 H         0.608374         0.451687         3.001784
 H        -0.118765        -0.857062         2.206765
