19
Iteration:  2443
 O         0.902521         0.930680         0.115249
 C        -0.234021         0.933849         1.025189
 C        -1.685093         0.930109         0.347620
 C        -1.959184         1.630121         1.844900
 C        -0.622885         2.387125         1.518327
 O        -3.024686         2.213403         2.791499
 C        -2.265057         1.718205         3.970327
 C        -1.622891         0.674240         2.908047
 C        -0.283027         0.102515         2.451317
 H         1.026919        -0.009205        -0.200984
 H        -1.616377         1.644285        -0.405448
 H        -1.983739        -0.059231         0.035490
 H        -0.870996         2.942232         0.552985
 H        -0.058687         2.956771         2.410866
 H        -1.636583         2.462982         4.443183
 H        -2.998571         1.324233         4.629048
 H        -2.296607        -0.173360         2.787868
 H         0.710623         0.295290         3.034293
 H        -0.317476        -0.974930         2.222124
