19
Iteration:  4184charge 0 multiplicity 1
 O         0.886299         0.739217         0.319837
 C        -0.301376         1.008852         1.073106
 C        -1.909813         0.840220         0.532940
 C        -1.961474         1.674232         1.772006
 C        -0.595991         2.448179         1.452696
 O        -2.965357         2.174272         2.713608
 C        -2.212468         1.633321         3.786207
 C        -1.621921         0.609150         2.833892
 C        -0.143527         0.309385         2.464230
 H         0.916417         1.298118        -0.451860
 H        -2.137078         1.455279        -0.373811
 H        -2.346721        -0.144083         0.388052
 H        -0.594216         3.223842         0.667499
 H         0.077739         2.893238         2.378199
 H        -1.392735         2.352052         4.070970
 H        -2.820115         1.468384         4.566767
 H        -2.161089        -0.318191         2.695659
 H         0.637803         0.819188         2.970927
 H        -0.019047        -0.732186         2.381092
