19
Iteration:  4438charge 0 multiplicity 1
 O         0.890246         0.745786         0.264159
 C        -0.256767         0.945141         1.036659
 C        -1.831178         0.841880         0.517605
 C        -1.976422         1.643900         1.791263
 C        -0.743609         2.430087         1.548335
 O        -2.884619         2.304639         2.688149
 C        -2.287458         1.578023         3.874222
 C        -1.579984         0.592265         2.844915
 C        -0.144539         0.330092         2.431320
 H         0.935904         1.333427        -0.567164
 H        -1.837812         1.366871        -0.476023
 H        -2.373467        -0.141170         0.106636
 H        -0.845703         3.114018         0.637483
 H        -0.034681         2.940209         2.171733
 H        -1.609683         2.203263         4.613637
 H        -3.083122         1.194296         4.480583
 H        -2.247638        -0.306643         2.723675
 H         0.503421         1.079469         2.896474
 H         0.283987        -0.711925         2.454286
