19
Iteration:  2431charge 0 multiplicity 1
 O         0.891296         0.910417         0.155743
 C        -0.232260         1.015390         1.020050
 C        -1.729260         0.903905         0.460182
 C        -1.999065         1.627747         1.785944
 C        -0.653521         2.330294         1.588925
 O        -2.987021         2.257298         2.759869
 C        -2.193123         1.663792         3.842780
 C        -1.634540         0.608641         2.861313
 C        -0.266038         0.174593         2.378961
 H         1.185858        -0.032882         0.194592
 H        -1.980839         1.527322        -0.361060
 H        -2.240082        -0.026202         0.287855
 H        -0.549023         3.249065         0.914459
 H        -0.093632         2.662051         2.561950
 H        -1.510580         2.407283         4.269730
 H        -2.792498         1.282329         4.640239
 H        -2.415183        -0.143571         2.886561
 H         0.473598         0.659852         3.100413
 H        -0.113995        -0.933995         2.394141
