19
Iteration:  2269
 O         0.821022         0.793469         0.158289
 C        -0.245015         1.016665         1.109396
 C        -1.778969         0.904010         0.510504
 C        -1.971795         1.701567         1.833450
 C        -0.737824         2.509464         1.516474
 O        -2.927021         2.216413         2.721770
 C        -2.256678         1.606257         3.840190
 C        -1.597827         0.595938         2.888753
 C        -0.148222         0.128456         2.364574
 H         1.584341         1.265476         0.460208
 H        -1.836519         1.268900        -0.522615
 H        -2.221213        -0.140914         0.491499
 H        -0.739539         3.228152         0.685249
 H        -0.139581         2.947935         2.288851
 H        -1.623939         2.461904         4.232636
 H        -2.848118         1.305542         4.693578
 H        -2.281955        -0.233015         2.652888
 H         0.769847         0.235796         3.025996
 H        -0.196732        -0.827548         1.953219
