19
Iteration:  2456
 O         0.860109         0.905908         0.157030
 C        -0.208207         0.963759         1.041951
 C        -1.617856         0.917793         0.437428
 C        -1.930435         1.716942         1.899782
 C        -0.637047         2.429713         1.446204
 O        -3.025306         2.222470         2.712915
 C        -2.346642         1.660861         3.922967
 C        -1.633234         0.625359         3.036397
 C        -0.188869         0.067398         2.357865
 H         0.659601         0.290929        -0.543791
 H        -1.637887         1.489399        -0.476593
 H        -2.311400         0.065996         0.215574
 H        -0.725660         3.126722         0.587901
 H         0.132284         3.005117         2.158509
 H        -1.711990         2.442617         4.267561
 H        -2.962139         1.240571         4.743049
 H        -2.412500        -0.190190         3.100657
 H         0.780813         0.055563         2.955297
 H        -0.478748        -0.935782         2.169488
