19
Iteration:  3041charge 0 multiplicity 1
 O         0.845907         0.779150         0.193589
 C        -0.208387         1.027653         1.108454
 C        -1.842669         0.844274         0.569649
 C        -1.956533         1.623237         1.800909
 C        -0.687070         2.438911         1.558644
 O        -2.908673         2.205037         2.627722
 C        -2.232127         1.657610         3.795612
 C        -1.643063         0.578915         2.899599
 C        -0.165478         0.245154         2.453492
 H         0.843451         1.522242        -0.493499
 H        -2.005008         1.531635        -0.207522
 H        -2.249472        -0.111591         0.379242
 H        -0.702921         3.089344         0.645315
 H        -0.251826         3.081258         2.378242
 H        -1.474330         2.388139         4.181743
 H        -2.964370         1.380751         4.559973
 H        -2.141796        -0.390727         2.779441
 H         0.715554         0.759558         3.016819
 H        -0.000908        -0.775202         2.188390
