19
Iteration:  3612charge 0 multiplicity 1
 O         0.904943         0.693474         0.188173
 C        -0.230175         0.969151         1.036490
 C        -1.710785         0.936242         0.498825
 C        -1.979292         1.630384         1.859822
 C        -0.673342         2.401587         1.487149
 O        -3.056636         2.228179         2.699362
 C        -2.257523         1.671049         3.803501
 C        -1.556894         0.634619         2.973036
 C        -0.211331         0.291798         2.409555
 H         0.790609         1.357712        -0.490074
 H        -1.960977         1.657221        -0.172659
 H        -2.093142        -0.116039         0.398440
 H        -0.819420         3.194229         0.757407
 H        -0.128470         2.842074         2.363138
 H        -1.714998         2.485247         4.229721
 H        -2.796906         1.242752         4.553133
 H        -2.128786        -0.284547         2.927142
 H         0.654774         0.536037         3.008887
 H        -0.004828        -0.865563         2.207671
