19
Iteration:  4869
 O         0.798874         0.870936         0.109405
 C        -0.192181         0.951179         1.071853
 C        -1.834923         0.837851         0.577634
 C        -2.001376         1.730578         1.801637
 C        -0.637100         2.433595         1.619305
 O        -3.093780         2.127357         2.653763
 C        -2.181439         1.695285         3.783844
 C        -1.585743         0.635905         2.854643
 C        -0.081028         0.226484         2.482436
 H         1.296784         0.007591        -0.087810
 H        -1.751552         1.401365        -0.382620
 H        -2.351555        -0.095140         0.650997
 H        -0.519675         3.154800         0.663556
 H         0.004042         2.871078         2.445429
 H        -1.467638         2.543025         4.002398
 H        -2.756727         1.414914         4.634259
 H        -2.346979        -0.153520         2.595574
 H         0.628242         0.797487         3.139163
 H         0.078428        -0.823609         2.630621
