19
Iteration:  1791charge 0 multiplicity 1
 O         0.851650         0.996135         0.188260
 C        -0.242456         1.036002         1.055247
 C        -1.769727         0.827461         0.575489
 C        -2.002703         1.688147         1.789209
 C        -0.712372         2.430722         1.416476
 O        -2.866571         2.286659         2.681975
 C        -2.205547         1.538059         3.867885
 C        -1.645164         0.563834         2.841074
 C        -0.220914         0.138677         2.506503
 H         1.119627         0.065412         0.072227
 H        -1.967801         1.327797        -0.379215
 H        -2.200848        -0.123207         0.524480
 H        -0.809347         3.224807         0.697023
 H         0.006318         2.816997         2.194109
 H        -1.394180         2.127857         4.377818
 H        -3.079974         1.348637         4.556775
 H        -2.334770        -0.274195         2.738244
 H         0.594707         0.404633         3.209018
 H        -0.167471        -0.885189         2.263510
