19
Iteration:  1253charge 0 multiplicity 1
 O         0.720703         0.723278         0.007921
 C        -0.271435         0.949110         1.109099
 C        -1.715076         0.892952         0.590451
 C        -1.943692         1.700366         1.801558
 C        -0.575047         2.471885         1.614450
 O        -3.030739         2.183317         2.699793
 C        -2.271897         1.621024         3.768299
 C        -1.603986         0.670117         2.828569
 C        -0.143606         0.339378         2.520988
 H         1.589899         0.538895         0.410138
 H        -1.864766         1.344492        -0.408273
 H        -2.079616        -0.150037         0.594045
 H        -0.494676         3.123094         0.642005
 H         0.021299         2.694266         2.491790
 H        -1.537558         2.423197         4.143986
 H        -2.866230         1.165255         4.694174
 H        -2.234924        -0.215247         2.536114
 H         0.648286         0.842415         3.132362
 H         0.002288        -0.788963         2.434256
