19
Iteration:  3420
 O         0.865664         0.780118         0.265693
 C        -0.277197         0.933316         0.986019
 C        -1.729752         0.873790         0.432496
 C        -1.947315         1.691976         1.834318
 C        -0.654874         2.391226         1.507771
 O        -3.010089         2.170360         2.729296
 C        -2.255696         1.743567         3.887522
 C        -1.591071         0.630693         2.928131
 C        -0.177017         0.219772         2.384195
 H         1.101763         1.452273        -0.443210
 H        -1.866377         1.453154        -0.561906
 H        -2.143802        -0.104150         0.368071
 H        -0.837324         3.104381         0.766245
 H        -0.167137         2.853795         2.381898
 H        -1.610894         2.434618         4.265390
 H        -2.892712         1.435750         4.757157
 H        -2.340713        -0.139163         2.828569
 H         0.772043         0.615502         2.872208
 H        -0.170533        -0.912944         2.128785
