19
Iteration:  2131charge 0 multiplicity 1
 O         0.803467         1.020386         0.190123
 C        -0.214510         1.078027         1.101041
 C        -1.721891         0.856534         0.490613
 C        -1.947639         1.610622         1.819544
 C        -0.711347         2.391095         1.525451
 O        -2.888858         2.260704         2.662326
 C        -2.185031         1.658430         3.882265
 C        -1.632383         0.481240         2.900942
 C        -0.250444         0.132345         2.389519
 H         0.529158         0.229600        -0.325191
 H        -1.733051         1.349553        -0.449458
 H        -2.126876        -0.161579         0.359305
 H        -0.867222         3.031166         0.634558
 H         0.028522         2.938693         2.188394
 H        -1.532827         2.222003         4.442283
 H        -3.027706         1.367686         4.567725
 H        -2.404433        -0.307756         2.993659
 H         0.470355         0.560642         3.114002
 H        -0.067357        -0.995317         2.325938
