19
Iteration:   809
 O         0.905001         0.706649         0.194408
 C        -0.229860         0.922789         1.010091
 C        -1.862549         1.036362         0.407210
 C        -1.918447         1.757625         1.802361
 C        -0.551186         2.324585         1.601739
 O        -3.066353         2.241585         2.713757
 C        -2.234241         1.622685         3.856638
 C        -1.621884         0.666116         2.867349
 C        -0.256225         0.163966         2.408431
 H         1.687757         1.289177         0.518987
 H        -1.934977         1.885587        -0.363095
 H        -2.485729         0.102297         0.156948
 H        -0.465077         3.030115         0.829964
 H         0.061693         2.685285         2.435315
 H        -1.539317         2.337575         4.379167
 H        -2.987314         1.314691         4.603006
 H        -2.435564        -0.124155         2.913010
 H         0.554667         0.510518         3.092739
 H         0.151005        -0.918891         2.254418
