19
Iteration:  1996
 O         0.925353         0.975805         0.127533
 C        -0.221409         1.064422         1.000112
 C        -1.845504         0.895957         0.564581
 C        -1.949402         1.529077         1.868273
 C        -0.663629         2.389939         1.548746
 O        -2.930953         2.264729         2.613431
 C        -2.292289         1.675471         3.807628
 C        -1.610446         0.527620         2.967909
 C        -0.169326         0.147767         2.462966
 H         0.823579         0.180491        -0.357531
 H        -2.153893         1.616167        -0.250330
 H        -2.532575         0.003122         0.419092
 H        -0.891438         3.259548         0.951892
 H        -0.041841         2.728083         2.333149
 H        -1.721798         2.492498         4.184868
 H        -2.917925         1.326072         4.572842
 H        -2.141269        -0.397157         2.995787
 H         0.649180         0.283834         3.294563
 H        -0.012332        -0.875908         2.155768
