19
Iteration:  3316
 O         0.779457         0.663523         0.247418
 C        -0.249226         1.100143         1.064801
 C        -1.700883         0.961554         0.548414
 C        -1.967487         1.637544         1.857087
 C        -0.628439         2.447826         1.541686
 O        -2.981264         2.245138         2.628977
 C        -2.276521         1.560312         3.845203
 C        -1.563489         0.607392         2.885729
 C        -0.152686         0.305967         2.398775
 H         0.709113         1.104797        -0.656880
 H        -2.065762         1.369293        -0.405207
 H        -2.196841        -0.175200         0.564641
 H        -0.935352         3.011274         0.594077
 H         0.065114         2.927608         2.262842
 H        -1.578024         2.291130         4.359572
 H        -3.045815         1.129562         4.435583
 H        -2.108128        -0.372037         2.738920
 H         0.735681         0.667477         2.870007
 H         0.052797        -0.722231         2.322427
