19
Iteration:  3878charge 0 multiplicity 1
 O         0.844081         0.811378         0.164602
 C        -0.228268         0.917485         1.048088
 C        -1.733974         0.861703         0.547535
 C        -1.877204         1.696720         1.896544
 C        -0.633589         2.365091         1.500579
 O        -3.019103         2.191483         2.620445
 C        -2.316359         1.756646         3.882443
 C        -1.645889         0.581406         2.948009
 C        -0.143196         0.224773         2.410636
 H         0.980924         1.561460        -0.436289
 H        -1.620288         1.469921        -0.437340
 H        -2.362357         0.052478         0.426591
 H        -0.906154         2.988139         0.703381
 H        -0.037171         2.905372         2.251810
 H        -1.546613         2.431569         4.057591
 H        -2.981456         1.428289         4.627457
 H        -2.315925        -0.308042         2.898545
 H         0.572493         0.749252         3.099106
 H        -0.102211        -0.957303         2.247223
