19
Iteration:   874
 O         0.862185         0.820106         0.151790
 C        -0.258792         0.914045         1.059390
 C        -1.700199         0.849303         0.525221
 C        -1.893674         1.752508         1.864532
 C        -0.504182         2.343720         1.590243
 O        -3.004394         2.309933         2.742295
 C        -2.340570         1.671057         3.788301
 C        -1.657363         0.648649         2.904686
 C        -0.294617         0.127039         2.330249
 H         1.074886         1.701860        -0.047644
 H        -1.771306         1.579125        -0.331379
 H        -2.341689        -0.093548         0.488220
 H        -0.347984         3.134879         0.615255
 H         0.185851         2.660883         2.445744
 H        -1.568067         2.145202         4.330420
 H        -3.096996         1.208938         4.399126
 H        -2.433927        -0.163067         2.673994
 H         0.594812         0.305965         2.960611
 H        -0.290147        -1.015971         2.213067
