19
Iteration:  3434
 O         0.892251         0.773818         0.250320
 C        -0.256282         1.059357         1.078697
 C        -1.792384         0.858597         0.498037
 C        -1.950681         1.613716         1.852985
 C        -0.649785         2.456261         1.507504
 O        -2.981171         2.229217         2.662430
 C        -2.219781         1.643102         3.838082
 C        -1.561403         0.649329         2.916118
 C        -0.241273         0.167148         2.377189
 H         0.636043         1.369494        -0.419329
 H        -2.154041         1.500247        -0.358567
 H        -2.345313        -0.108266         0.310097
 H        -0.649754         3.009432         0.512800
 H         0.063608         2.940612         2.189423
 H        -1.597565         2.527115         4.216971
 H        -2.953988         1.182560         4.494277
 H        -2.242586        -0.249753         2.917974
 H         0.574453         0.595017         3.057100
 H         0.093167        -0.968627         2.459033
