19
Iteration:   409
 O         0.907480         0.854635         0.206106
 C        -0.181651         0.924491         1.067703
 C        -1.719608         0.972063         0.546208
 C        -1.930011         1.751572         1.843580
 C        -0.473607         2.314991         1.612567
 O        -3.006506         2.386815         2.637595
 C        -2.331378         1.544065         3.894140
 C        -1.737149         0.612618         2.806086
 C        -0.332869         0.120073         2.397733
 H         0.735883         0.394780        -0.612797
 H        -1.702515         1.641487        -0.329148
 H        -2.162384        -0.007073         0.329045
 H        -0.309761         2.974973         0.647362
 H         0.133700         2.695684         2.411606
 H        -1.507862         2.104552         4.316212
 H        -3.081061         1.255251         4.625591
 H        -2.482677        -0.111340         2.449130
 H         0.470811         0.523589         2.999759
 H        -0.096407        -0.984320         2.454549
