19
Iteration:    20charge 0 multiplicity 1
 O         0.868456         0.794942         0.196297
 C        -0.107097         0.920236         1.200680
 C        -1.801758         1.241307         0.416823
 C        -1.965941         1.757094         1.762719
 C        -0.437859         2.301004         1.769714
 O        -3.026511         2.369435         2.636721
 C        -2.224995         1.541978         3.795831
 C        -1.732527         0.609716         2.778893
 C        -0.341361        -0.028803         2.379433
 H         1.465692         0.077223         0.454251
 H        -1.693062         1.982732        -0.401813
 H        -2.344941         0.367431         0.015388
 H        -0.332238         3.083260         0.842892
 H         0.037212         2.799293         2.601874
 H        -1.628091         2.330381         4.273737
 H        -3.040452         1.035905         4.355264
 H        -2.486281        -0.141060         2.620454
 H         0.381154        -0.018652         3.309543
 H        -0.553125        -1.028795         2.151002
