19
Iteration:   121charge 0 multiplicity 1
 O         0.847400         0.579287         0.179889
 C        -0.208909         1.026518         1.049578
 C        -1.762293         1.175893         0.479408
 C        -1.889932         1.704983         1.836706
 C        -0.407691         2.416577         1.770426
 O        -2.962758         2.303801         2.651264
 C        -2.425186         1.614473         3.765937
 C        -1.710510         0.540021         2.764122
 C        -0.299895         0.121075         2.380279
 H         1.671757         1.119394         0.437214
 H        -1.833397         1.910539        -0.299425
 H        -2.396105         0.317371         0.286562
 H        -0.382937         3.246246         1.092030
 H         0.075192         2.691873         2.760822
 H        -1.750199         2.247014         4.348215
 H        -3.122189         1.236492         4.494599
 H        -2.378221        -0.307623         2.559324
 H         0.499991         0.408863         3.050374
 H        -0.149035        -0.979958         2.209303
