19
Iteration:  4543charge 0 multiplicity 1
 O         0.916457         0.754334         0.219542
 C        -0.202578         0.995768         1.029517
 C        -1.720271         0.793041         0.512487
 C        -2.036909         1.605315         1.778908
 C        -0.734907         2.487734         1.493679
 O        -3.007810         2.293365         2.792300
 C        -2.209481         1.669669         3.867921
 C        -1.609575         0.616792         2.845750
 C        -0.215792         0.203635         2.390420
 H         1.078928         1.576185        -0.376875
 H        -1.904055         1.401604        -0.342053
 H        -1.900563        -0.214618         0.532421
 H        -0.923677         3.156664         0.603942
 H        -0.115872         3.114391         2.297631
 H        -1.539684         2.452766         4.127386
 H        -2.939941         1.166436         4.680985
 H        -2.208399        -0.272985         2.850873
 H         0.674331         0.462207         3.014436
 H        -0.068211        -0.853460         2.204691
