19
Iteration:   221charge 0 multiplicity 1
 O         0.991299         0.713758         0.251208
 C        -0.178727         0.956270         1.034700
 C        -1.647424         1.030163         0.451744
 C        -1.940139         1.700001         1.869549
 C        -0.606368         2.403526         1.699049
 O        -2.952378         2.358687         2.662773
 C        -2.372702         1.685796         3.898416
 C        -1.736764         0.547367         2.834857
 C        -0.348430         0.049735         2.281949
 H         0.892002         0.967258        -0.654606
 H        -1.781549         1.682903        -0.398467
 H        -2.215623         0.193024         0.081782
 H        -0.561458         3.220439         1.045269
 H        -0.092801         2.706728         2.688796
 H        -1.611395         2.398145         4.231259
 H        -3.081787         1.434241         4.703959
 H        -2.543519        -0.206721         2.670987
 H         0.448693         0.236160         2.954490
 H        -0.163576        -1.046584         2.017107
