19
Iteration:  4003charge 0 multiplicity 1
 O         0.784883         0.736555         0.113317
 C        -0.226125         1.016466         1.059124
 C        -1.673167         0.872013         0.582843
 C        -1.885269         1.597834         1.834120
 C        -0.675955         2.404006         1.542974
 O        -2.924701         2.224004         2.650217
 C        -2.334764         1.695807         3.838073
 C        -1.615577         0.616433         2.924467
 C        -0.173351         0.277442         2.451543
 H         0.832815         1.337633        -0.702875
 H        -1.827332         1.474022        -0.271456
 H        -2.061971        -0.208245         0.432903
 H        -0.719012         3.119185         0.641172
 H        -0.283180         2.959013         2.422766
 H        -1.943751         2.388135         4.444833
 H        -3.145621         1.234878         4.496764
 H        -2.318125        -0.193385         2.714666
 H         0.570046         0.730017         3.138010
 H         0.086854        -0.756377         2.470995
