19
Iteration:  2289charge 0 multiplicity 1
 O         0.925687         0.722362         0.167729
 C        -0.230106         1.006414         0.907946
 C        -1.730471         0.856080         0.516921
 C        -1.989378         1.650266         1.838263
 C        -0.619811         2.417014         1.629843
 O        -3.110117         2.231078         2.759177
 C        -2.145027         1.632852         3.888413
 C        -1.620920         0.699205         2.855249
 C        -0.270454         0.233869         2.325329
 H         1.438116         1.520647         0.023821
 H        -2.014177         1.359629        -0.396669
 H        -2.066110        -0.140194         0.438999
 H        -0.790245         3.316181         0.932626
 H        -0.279711         2.923411         2.611764
 H        -1.522015         2.251803         4.502393
 H        -2.766760         1.105674         4.534030
 H        -2.286124        -0.137342         2.709446
 H         0.590876         0.654572         2.879987
 H        -0.143349        -0.843553         2.189509
