19
Iteration:   249charge 0 multiplicity 1
 O         0.748345         0.670326         0.251312
 C        -0.181403         1.010209         1.157510
 C        -1.697483         1.082238         0.482526
 C        -1.942013         1.747951         1.826258
 C        -0.403903         2.427284         1.738469
 O        -2.958053         2.236821         2.588561
 C        -2.353420         1.639993         3.818455
 C        -1.664436         0.578898         2.747934
 C        -0.307409         0.082151         2.359910
 H         1.040617         1.442601        -0.184484
 H        -1.730773         1.544973        -0.534984
 H        -2.314698         0.149885         0.318675
 H        -0.415253         3.170370         0.874148
 H         0.171375         2.695319         2.643246
 H        -1.682758         2.465510         4.221516
 H        -3.038533         1.160297         4.506429
 H        -2.447657        -0.161251         2.701070
 H         0.484862         0.320132         3.206985
 H        -0.173926        -0.912342         2.039830
