19
Iteration:   216charge 0 multiplicity 1
 O         0.998731         0.739384         0.279250
 C        -0.199968         0.938438         1.056980
 C        -1.676187         1.041667         0.396703
 C        -1.957867         1.686124         1.830450
 C        -0.597018         2.375602         1.718639
 O        -2.918205         2.354294         2.690846
 C        -2.364873         1.707863         3.921751
 C        -1.745457         0.537455         2.797000
 C        -0.338058         0.025596         2.267956
 H         0.852836         0.879715        -0.694521
 H        -1.705019         1.837412        -0.400317
 H        -2.244417         0.070469         0.203054
 H        -0.636555         3.235086         0.936586
 H         0.004510         2.765410         2.526654
 H        -1.811328         2.590274         4.386072
 H        -3.134278         1.492260         4.680248
 H        -2.450013        -0.279906         2.702713
 H         0.464867         0.359979         3.049354
 H        -0.129609        -0.985806         2.022596
