19
Iteration:   277charge 0 multiplicity 1
 O         0.880250         0.656135         0.133472
 C        -0.200711         0.921653         0.991836
 C        -1.707212         1.112481         0.444606
 C        -1.959726         1.737442         1.909396
 C        -0.476930         2.335385         1.694240
 O        -2.969357         2.364475         2.652707
 C        -2.426058         1.566107         3.776974
 C        -1.653583         0.589348         2.840518
 C        -0.282774         0.165610         2.491978
 H         1.405153         1.473839         0.230965
 H        -1.712649         1.899436        -0.339737
 H        -2.359956         0.263425         0.256472
 H        -0.654416         3.086144         0.900540
 H         0.225202         2.561639         2.493372
 H        -1.792713         2.222993         4.349117
 H        -3.129857         1.002514         4.438439
 H        -2.338797        -0.299038         2.758268
 H         0.572223         0.479246         3.038888
 H        -0.365307        -0.939165         2.298116
