19
Iteration:  2576
 O         0.808170         0.974181         0.100624
 C        -0.280101         0.929475         1.033013
 C        -1.753100         0.858980         0.437329
 C        -1.990711         1.541971         1.813057
 C        -0.638050         2.368481         1.548063
 O        -2.911975         2.231687         2.640191
 C        -2.237603         1.731137         3.862189
 C        -1.603836         0.593916         3.011976
 C        -0.168501         0.225443         2.512744
 H         0.833676         0.015389        -0.183995
 H        -1.881044         1.612961        -0.264206
 H        -2.218281        -0.056749         0.140378
 H        -0.689253         3.155499         0.771780
 H        -0.064878         2.586390         2.518052
 H        -1.612260         2.534985         4.146803
 H        -2.962256         1.465839         4.655045
 H        -2.362382        -0.180886         3.082923
 H         0.721528         0.675999         3.038321
 H        -0.100834        -0.870577         2.419324
