19
Iteration:   962
 O         0.872834         0.751927         0.180361
 C        -0.200577         1.033449         1.075631
 C        -1.757066         1.017484         0.554907
 C        -1.945581         1.691341         1.882672
 C        -0.547042         2.360927         1.582491
 O        -3.013560         2.291373         2.673227
 C        -2.333538         1.628456         3.805873
 C        -1.577516         0.628056         2.885615
 C        -0.197695         0.066309         2.386404
 H         0.670393         1.176033        -0.628486
 H        -1.896810         1.654984        -0.372277
 H        -2.430315         0.108085         0.463510
 H        -0.754000         3.039727         0.584563
 H         0.166848         2.751637         2.373953
 H        -1.621646         2.254876         4.333196
 H        -3.169191         1.313266         4.436420
 H        -2.237865        -0.230002         2.617045
 H         0.586808         0.375165         3.039905
 H        -0.409308        -1.029038         2.220083
