19
Iteration:  2792charge 0 multiplicity 1
 O         0.821110         0.800824         0.119701
 C        -0.265164         1.031467         0.971532
 C        -1.696811         0.823649         0.521802
 C        -1.909866         1.560598         1.866526
 C        -0.633332         2.396883         1.463068
 O        -2.891976         2.252283         2.725735
 C        -2.363794         1.664695         3.880925
 C        -1.657476         0.624461         3.018964
 C        -0.190550         0.249127         2.436504
 H         0.849995         1.599917        -0.405241
 H        -2.065823         1.335359        -0.350211
 H        -1.919962        -0.290411         0.319300
 H        -0.812499         2.916286         0.543605
 H         0.047112         2.974156         2.079199
 H        -1.705612         2.394198         4.345815
 H        -3.096340         1.291735         4.458544
 H        -2.323383        -0.198288         2.868570
 H         0.550271         0.844159         2.990658
 H         0.154728        -0.712653         2.517118
