19
Iteration:    79charge 0 multiplicity 1
 O         0.954747         0.744626         0.270203
 C        -0.188809         0.881341         1.109938
 C        -1.707502         1.068933         0.423494
 C        -1.902927         1.810941         1.825808
 C        -0.602026         2.409178         1.702085
 O        -2.852168         2.380331         2.750938
 C        -2.403330         1.594769         3.752673
 C        -1.755351         0.597944         2.763634
 C        -0.310416        -0.024317         2.366683
 H         0.777866         1.015690        -0.621198
 H        -1.609335         1.711591        -0.456634
 H        -2.268923         0.172090         0.122592
 H        -0.511471         3.092274         0.963392
 H        -0.117226         2.826868         2.644881
 H        -1.683309         2.060311         4.440782
 H        -3.287040         1.316285         4.334902
 H        -2.660592         0.019580         2.463896
 H         0.484604         0.095863         3.027551
 H        -0.371689        -1.152499         2.220230
