19
Iteration:  4509charge 0 multiplicity 1
 O         0.815593         0.728897         0.247130
 C        -0.287124         0.991957         1.036703
 C        -1.781166         0.946886         0.490387
 C        -2.004480         1.574123         1.857907
 C        -0.604423         2.447412         1.619488
 O        -3.013136         2.131262         2.624335
 C        -2.208185         1.721105         3.762202
 C        -1.513242         0.609080         2.883909
 C        -0.140597         0.248155         2.434630
 H         0.730815         1.299634        -0.600910
 H        -2.138993         1.614178        -0.322337
 H        -2.210798         0.097206         0.159201
 H        -0.783400         3.296363         0.802782
 H         0.072849         2.836710         2.507166
 H        -1.668581         2.507899         4.160246
 H        -2.878372         1.467099         4.678006
 H        -2.217358        -0.194694         3.004978
 H         0.634734         0.879107         2.954939
 H         0.029990        -0.824603         2.493059
