19
Iteration:  2715
 O         0.810273         0.783737         0.009134
 C        -0.198402         1.019038         1.003151
 C        -1.770891         0.865820         0.567231
 C        -1.963220         1.560002         1.924015
 C        -0.619109         2.434224         1.525388
 O        -3.060008         2.172157         2.628820
 C        -2.252814         1.795027         3.862093
 C        -1.554338         0.590726         3.024726
 C        -0.146186         0.223325         2.388952
 H         1.651568         0.834839         0.572346
 H        -1.998598         1.583307        -0.230808
 H        -2.099127        -0.253330         0.546301
 H        -0.974458         3.068811         0.727954
 H        -0.178555         3.035285         2.321853
 H        -1.719863         2.736749         4.179681
 H        -3.019071         1.527534         4.516647
 H        -2.152723        -0.298161         3.014647
 H         0.688689         0.643458         3.015252
 H        -0.206727        -0.816804         2.373544
