19
Iteration:  4259
 O         0.785000         0.798728         0.218044
 C        -0.228255         0.912476         1.102067
 C        -1.834522         0.889556         0.534487
 C        -1.883542         1.678056         1.828907
 C        -0.635133         2.427310         1.507803
 O        -3.045785         2.201583         2.613599
 C        -2.254546         1.680039         3.773062
 C        -1.547704         0.600514         2.920344
 C        -0.101829         0.213474         2.478504
 H         0.698127         1.507606        -0.486259
 H        -1.897889         1.546484        -0.419310
 H        -2.447319         0.041916         0.559091
 H        -0.514284         3.116030         0.755290
 H        -0.087603         2.794763         2.422620
 H        -1.533402         2.365437         4.154753
 H        -2.856504         1.496624         4.620055
 H        -2.170561        -0.271297         2.696617
 H         0.681023         0.650747         3.047909
 H         0.063436        -0.858097         2.404123
