19
Iteration:  2173charge 0 multiplicity 1
 O         0.948142         0.852761         0.172518
 C        -0.241627         1.032947         1.040444
 C        -1.913270         0.968023         0.543561
 C        -1.992817         1.658889         1.860215
 C        -0.590522         2.438394         1.492083
 O        -3.025314         2.199307         2.737538
 C        -2.208404         1.576605         3.848771
 C        -1.612424         0.591748         2.852401
 C        -0.156418         0.212631         2.382942
 H         1.166437        -0.064757         0.153068
 H        -1.913433         1.530234        -0.425820
 H        -2.351002        -0.126211         0.409711
 H        -0.851727         3.126506         0.673794
 H        -0.120960         3.011821         2.292574
 H        -1.671221         2.400471         4.377914
 H        -2.854686         1.035736         4.618652
 H        -2.350288        -0.241661         2.767279
 H         0.597649         0.797893         3.020304
 H         0.109807        -0.828575         2.109371
