19
Iteration:   527
 O         0.880690         0.720255         0.164576
 C        -0.176834         1.049083         1.059379
 C        -1.751230         0.872350         0.412654
 C        -1.954073         1.558093         1.835917
 C        -0.626691         2.401364         1.711256
 O        -2.937556         2.451419         2.664656
 C        -2.362211         1.785907         3.889831
 C        -1.692677         0.527213         2.839283
 C        -0.210209         0.079613         2.357966
 H         1.495009         1.551909         0.274838
 H        -1.860383         1.504493        -0.431291
 H        -2.148607        -0.098271         0.346000
 H        -0.808486         3.033756         0.973098
 H         0.112822         2.781852         2.488666
 H        -1.498211         2.296817         4.247367
 H        -3.113148         1.384102         4.580017
 H        -2.373568        -0.325809         2.779729
 H         0.621301         0.070861         3.009485
 H        -0.292057        -1.006706         1.988669
