19
Iteration:  3488charge 0 multiplicity 1
 O         0.834802         0.678520         0.169919
 C        -0.218267         1.066116         1.057354
 C        -1.703597         0.920977         0.518293
 C        -1.945785         1.675483         1.835060
 C        -0.622333         2.404589         1.501774
 O        -3.024504         2.198283         2.654320
 C        -2.264076         1.595887         3.881679
 C        -1.581393         0.663673         2.914777
 C        -0.164599         0.296028         2.480166
 H         0.568115         1.131669        -0.609264
 H        -1.805436         1.482228        -0.453640
 H        -2.264384         0.011064         0.274588
 H        -0.858781         3.146109         0.692139
 H        -0.156536         2.762956         2.418358
 H        -1.803479         2.395675         4.437983
 H        -2.961139         1.159295         4.614335
 H        -2.216547        -0.228193         2.783765
 H         0.748715         0.692264         3.050532
 H        -0.270812        -0.839711         2.140163
