19
Iteration:  4997
 O         0.777954         0.826285         0.107287
 C        -0.251379         1.074045         1.041099
 C        -1.676573         0.770007         0.556498
 C        -1.968334         1.657517         1.909935
 C        -0.664059         2.464946         1.544152
 O        -2.976924         2.202134         2.683717
 C        -2.424891         1.772455         3.832806
 C        -1.529583         0.604156         2.972609
 C        -0.103431         0.225880         2.279949
 H         1.183987         0.014313         0.298196
 H        -2.078188         1.122897        -0.522140
 H        -1.842185        -0.296919         0.503524
 H        -0.852601         3.226323         0.826195
 H         0.067250         2.738779         2.349810
 H        -1.749366         2.543273         4.357253
 H        -3.043740         1.095509         4.571014
 H        -2.065073        -0.301673         3.032883
 H         0.773218         0.651560         2.833180
 H         0.142024        -0.846912         2.246891
