19
Iteration:  4492charge 0 multiplicity 1
 O         0.839193         0.756496         0.157090
 C        -0.196782         0.959239         1.043534
 C        -1.814290         0.958026         0.531085
 C        -1.926548         1.682976         1.797340
 C        -0.569789         2.377813         1.561804
 O        -3.119265         2.128554         2.646811
 C        -2.314918         1.675551         3.844774
 C        -1.556687         0.678436         2.947363
 C        -0.102332         0.267165         2.457199
 H         0.641314         1.142665        -0.726535
 H        -1.686300         1.584465        -0.364456
 H        -2.276708        -0.118722         0.531708
 H        -0.539461         3.106689         0.810065
 H         0.022283         2.706911         2.388004
 H        -1.728995         2.567115         4.340702
 H        -2.829952         1.335711         4.760684
 H        -2.174355        -0.241485         2.817905
 H         0.799566         0.599328         2.953784
 H        -0.036110        -0.819660         2.231481
