19
Iteration:  3408
 O         0.922143         0.723307         0.207176
 C        -0.246289         1.010434         1.011054
 C        -1.749695         0.851968         0.522666
 C        -2.038398         1.582027         1.824616
 C        -0.678284         2.421337         1.565487
 O        -3.065113         2.228024         2.713847
 C        -2.191939         1.713398         3.865859
 C        -1.611142         0.676367         2.878911
 C        -0.163487         0.250148         2.337926
 H         0.977907         1.525042        -0.263020
 H        -1.620340         1.551202        -0.411741
 H        -2.266227        -0.065856         0.340664
 H        -0.740909         3.169839         0.849276
 H         0.063256         2.656794         2.336998
 H        -1.532161         2.419716         4.137827
 H        -2.906381         1.406630         4.656255
 H        -2.134225        -0.235448         2.993351
 H         0.699524         0.390325         3.046444
 H        -0.167367        -0.892851         2.302323
