19
Iteration:  4059charge 0 multiplicity 1
 O         0.915026         0.717437         0.290699
 C        -0.298584         1.023560         0.971625
 C        -1.784974         0.829492         0.435413
 C        -1.973475         1.615809         1.828615
 C        -0.718612         2.528485         1.577746
 O        -3.002140         2.223678         2.664890
 C        -2.154335         1.714978         3.863601
 C        -1.629118         0.590816         2.923330
 C        -0.147884         0.237778         2.402377
 H         1.165737         1.237838        -0.527180
 H        -1.931442         1.356789        -0.538080
 H        -2.181122        -0.240371         0.577698
 H        -1.015076         3.188922         0.691069
 H        -0.076082         2.923744         2.484123
 H        -1.447818         2.459378         4.122590
 H        -2.945597         1.370489         4.604413
 H        -2.329277        -0.277346         2.834043
 H         0.775181         0.518760         2.950106
 H        -0.197405        -0.870542         2.286330
