19
Iteration:  1142
 O         0.960513         0.746478         0.241641
 C        -0.228355         1.079135         0.966612
 C        -1.780237         0.939673         0.484630
 C        -1.994339         1.540261         1.821623
 C        -0.752183         2.357459         1.552281
 O        -2.910610         2.276185         2.700607
 C        -2.219815         1.724254         3.869641
 C        -1.571565         0.596157         2.944220
 C        -0.268787         0.241621         2.381422
 H         0.831348         0.382663        -0.665755
 H        -1.897893         1.646500        -0.324751
 H        -2.215318         0.008802         0.153861
 H        -0.990752         3.020639         0.759077
 H        -0.215944         2.785664         2.448711
 H        -1.667987         2.378711         4.475430
 H        -2.962245         1.295380         4.553031
 H        -2.232987        -0.261713         3.023816
 H         0.582531         0.660080         2.877545
 H        -0.298075        -0.800457         2.184726
