19
Iteration:   301
 O         0.820125         0.700852         0.188551
 C        -0.180488         0.963747         1.059361
 C        -1.676161         0.936167         0.443781
 C        -1.887501         1.767610         1.830182
 C        -0.544194         2.451195         1.654384
 O        -2.844077         2.389497         2.706423
 C        -2.433383         1.566844         3.846384
 C        -1.775672         0.539785         2.804379
 C        -0.290118         0.137012         2.393573
 H         1.580134         1.176332         0.444613
 H        -1.826325         1.648727        -0.393070
 H        -2.108878        -0.076477         0.322300
 H        -0.606923         3.231161         0.815220
 H        -0.084115         2.661008         2.543395
 H        -1.711328         2.129154         4.460306
 H        -3.311478         1.265668         4.460011
 H        -2.559651        -0.190776         2.533269
 H         0.603677         0.423359         2.886830
 H        -0.200954        -0.841660         2.024810
