19
Iteration:  4282
 O         0.884645         0.659599         0.224490
 C        -0.205243         1.009909         1.008828
 C        -1.811593         0.917965         0.458313
 C        -2.028886         1.604158         1.862218
 C        -0.622522         2.411258         1.481508
 O        -2.992124         2.235859         2.669049
 C        -2.251489         1.602929         3.910177
 C        -1.592523         0.644652         2.888951
 C        -0.170177         0.346952         2.447087
 H         1.026468         1.283242        -0.446451
 H        -2.021500         1.652611        -0.351451
 H        -2.225197        -0.091093         0.335301
 H        -0.826657         3.129902         0.743437
 H         0.026367         2.975445         2.273874
 H        -1.684093         2.291884         4.482308
 H        -2.953570         1.220691         4.517299
 H        -2.175572        -0.264258         2.816408
 H         0.555293         0.885203         3.033665
 H         0.126291        -0.654363         2.417719
