19
Iteration:  2666charge 0 multiplicity 1
 O         0.760389         0.759130         0.001165
 C        -0.190963         0.980878         1.072025
 C        -1.778088         0.831789         0.532521
 C        -1.926179         1.671995         1.866630
 C        -0.629810         2.425885         1.425500
 O        -2.960208         2.228661         2.703602
 C        -2.312901         1.617759         3.845342
 C        -1.646116         0.577344         2.919378
 C        -0.128723         0.359869         2.585568
 H         1.628098         0.955783         0.352082
 H        -1.938006         1.399872        -0.391244
 H        -2.197251        -0.119673         0.655194
 H        -0.905654         3.152918         0.622338
 H         0.022911         2.899255         2.173580
 H        -1.651582         2.335911         4.224507
 H        -3.041639         1.282128         4.663748
 H        -2.175471        -0.376860         2.673137
 H         0.537859         1.000238         3.091090
 H         0.204329        -0.704351         2.491456
