19
Iteration:  1658charge 0 multiplicity 1
 O         0.877269         1.017763         0.256141
 C        -0.276655         0.951527         1.052410
 C        -1.814340         0.863596         0.561532
 C        -2.004914         1.661220         1.800940
 C        -0.685218         2.309406         1.439950
 O        -2.918932         2.315050         2.675678
 C        -2.174106         1.606326         3.914235
 C        -1.612388         0.587030         2.847731
 C        -0.206227         0.179506         2.383267
 H         1.190326         0.115351         0.033346
 H        -1.845241         1.212299        -0.415801
 H        -2.339692        -0.054394         0.594069
 H        -0.744660         2.852079         0.478320
 H        -0.100141         2.924270         2.121413
 H        -1.556190         2.318938         4.407953
 H        -2.897968         1.135600         4.562666
 H        -2.317161        -0.205092         2.908623
 H         0.660547         0.552486         2.979704
 H        -0.157396        -0.845853         2.223613
