19
Iteration:  3004charge 0 multiplicity 1
 O         0.852094         0.770235         0.187999
 C        -0.284971         0.977641         1.041668
 C        -1.681910         0.785105         0.506744
 C        -1.925858         1.686031         1.828328
 C        -0.613663         2.424940         1.483530
 O        -2.986554         2.252635         2.771517
 C        -2.404810         1.617344         3.906284
 C        -1.592446         0.657024         2.888411
 C        -0.109501         0.312836         2.371778
 H         0.639617         1.071939        -0.707954
 H        -1.891017         1.534392        -0.411232
 H        -2.091248        -0.219906         0.253572
 H        -0.493803         2.964780         0.502700
 H        -0.035926         2.878790         2.324849
 H        -1.928269         2.409172         4.431149
 H        -3.127610         0.997914         4.510968
 H        -2.366080        -0.143587         2.893519
 H         0.753768         0.664150         2.868657
 H        -0.008797        -0.834484         2.470139
