19
Iteration:   155charge 0 multiplicity 1
 O         0.815300         0.754122         0.156788
 C        -0.182405         1.032530         1.150561
 C        -1.659384         1.062235         0.413982
 C        -1.902208         1.707228         1.722166
 C        -0.416911         2.406803         1.684846
 O        -2.989515         2.334755         2.716239
 C        -2.384044         1.565597         3.833166
 C        -1.715747         0.565840         2.827932
 C        -0.335821         0.130883         2.386684
 H         1.373686        -0.012490         0.551125
 H        -1.637237         1.828488        -0.336874
 H        -2.122218         0.124486         0.044461
 H        -0.379730         3.152587         0.980721
 H         0.114076         2.648325         2.680987
 H        -1.691966         2.259400         4.250280
 H        -3.143705         1.237049         4.537712
 H        -2.492963        -0.206754         2.739615
 H         0.456847         0.057268         3.076302
 H        -0.593380        -0.934402         2.073158
