19
Iteration:  1752charge 0 multiplicity 1
 O         0.903053         0.850734         0.148445
 C        -0.334368         1.026958         0.931092
 C        -1.770483         0.937307         0.532627
 C        -1.996603         1.628943         1.887383
 C        -0.583574         2.404705         1.500110
 O        -2.990230         2.234978         2.691407
 C        -2.335826         1.579050         3.904839
 C        -1.599104         0.600467         2.895331
 C        -0.103977         0.277216         2.449454
 H         0.932348        -0.147531         0.057398
 H        -1.863425         1.533655        -0.439933
 H        -2.365488        -0.039041         0.300795
 H        -0.629346         3.250048         0.772390
 H         0.077845         2.696048         2.337344
 H        -1.718628         2.420939         4.268222
 H        -2.964437         1.144366         4.679329
 H        -2.151524        -0.386142         2.739049
 H         0.727215         0.813697         2.884238
 H        -0.024458        -0.885612         2.554102
