19
Iteration:  4798charge 0 multiplicity 1
 O         0.875021         0.882483         0.189004
 C        -0.254393         0.977793         1.118375
 C        -1.867972         0.760444         0.587325
 C        -1.982470         1.691565         1.821896
 C        -0.546342         2.423687         1.404551
 O        -2.993955         2.229107         2.677409
 C        -2.236956         1.580301         3.831588
 C        -1.561515         0.666664         2.848763
 C        -0.186079         0.286567         2.501652
 H         0.474911         0.845666        -0.755342
 H        -1.934304         1.348948        -0.276524
 H        -2.213049        -0.309641         0.623234
 H        -0.581406         3.056254         0.554978
 H         0.095225         2.863055         2.256540
 H        -1.744942         2.255788         4.413373
 H        -3.027405         1.079199         4.475703
 H        -2.150339        -0.225091         2.818186
 H         0.585246         0.703857         3.112620
 H        -0.030838        -0.822546         2.349891
