19
Iteration:  3822charge 0 multiplicity 1
 O         0.888080         0.669493         0.198438
 C        -0.246195         0.964939         1.030241
 C        -1.759813         0.938922         0.527519
 C        -1.968195         1.665849         1.888333
 C        -0.689145         2.490299         1.490445
 O        -3.015840         2.261504         2.621872
 C        -2.239487         1.549407         3.850685
 C        -1.585461         0.608613         2.879144
 C        -0.185744         0.313584         2.469334
 H         0.868314         0.990453        -0.675134
 H        -1.892142         1.717911        -0.268800
 H        -2.010449        -0.068525         0.293399
 H        -0.859389         3.117250         0.680169
 H        -0.166012         3.046216         2.323127
 H        -1.558775         2.291798         4.242368
 H        -2.803833         1.221332         4.675666
 H        -2.250576        -0.296676         2.893451
 H         0.632640         0.749263         3.115290
 H         0.109961        -0.829908         2.768140
