19
Iteration:  3592charge 0 multiplicity 1
 O         0.877030         0.781634         0.287757
 C        -0.238901         1.005821         1.011333
 C        -1.864328         0.836084         0.490952
 C        -1.980422         1.647524         1.794975
 C        -0.678394         2.410115         1.560124
 O        -2.989600         2.214593         2.661591
 C        -2.224369         1.705849         3.887645
 C        -1.594339         0.643648         2.888928
 C        -0.136410         0.205469         2.358604
 H         1.081821         1.298139        -0.469704
 H        -1.771089         1.371444        -0.414528
 H        -2.325338        -0.179827         0.557762
 H        -0.693722         3.145856         0.755819
 H         0.087584         2.883576         2.276267
 H        -1.501740         2.470783         4.344355
 H        -2.963736         1.327327         4.608921
 H        -2.307845        -0.194786         2.769357
 H         0.716201         0.537259         2.920629
 H         0.020364        -0.837282         2.356197
