19
Iteration:  1600
 O         0.764754         0.805903         0.133857
 C        -0.267859         0.972653         0.970953
 C        -1.753513         1.003221         0.445553
 C        -1.873388         1.571503         1.805390
 C        -0.604881         2.438922         1.577013
 O        -3.050843         2.162117         2.681691
 C        -2.289337         1.715836         3.828211
 C        -1.560804         0.594628         2.992645
 C        -0.099584         0.259738         2.488070
 H         1.018425        -0.114820         0.082713
 H        -1.914774         1.790601        -0.296243
 H        -2.406183         0.109246         0.289655
 H        -0.745209         3.172712         0.698045
 H        -0.051701         2.745772         2.517434
 H        -1.640896         2.547190         4.302343
 H        -3.020569         1.447246         4.625803
 H        -2.152371        -0.375187         2.931387
 H         0.778748         0.574842         2.974461
 H         0.040273        -0.842706         2.329720
