19
Iteration:  2339charge 0 multiplicity 1
 O         0.797949         0.832196         0.147331
 C        -0.185781         1.044678         1.094595
 C        -1.743196         0.905995         0.580873
 C        -1.945082         1.681116         1.872713
 C        -0.635754         2.421251         1.633872
 O        -2.929892         2.235752         2.620947
 C        -2.312709         1.576676         3.822819
 C        -1.566458         0.608157         2.835394
 C        -0.192061         0.213485         2.397414
 H         0.346636         0.563723        -0.645933
 H        -1.875835         1.467967        -0.399118
 H        -2.393365        -0.002087         0.515423
 H        -0.629756         3.114177         0.846694
 H        -0.033996         2.798718         2.391105
 H        -1.612914         2.300683         4.310181
 H        -3.068636         1.264247         4.614843
 H        -2.112501        -0.346609         2.771739
 H         0.577357         0.458530         3.086322
 H        -0.169042        -0.897760         2.167142
