19
Iteration:  1200
 O         0.872137         0.794062         0.089716
 C        -0.270884         0.947490         1.013130
 C        -1.857041         0.810968         0.507722
 C        -1.884503         1.687978         1.858969
 C        -0.605198         2.412946         1.538329
 O        -3.013171         2.240633         2.635197
 C        -2.294330         1.698877         3.924830
 C        -1.553522         0.661280         2.941685
 C        -0.198391         0.181610         2.438220
 H         1.494950         1.513675         0.228941
 H        -1.974241         1.347119        -0.453180
 H        -2.370802        -0.163058         0.563525
 H        -0.655343         3.264331         0.726918
 H         0.061243         2.801938         2.318535
 H        -1.747854         2.474727         4.318741
 H        -3.056500         1.257361         4.618357
 H        -2.315689        -0.167854         2.810938
 H         0.728474         0.438906         2.974847
 H        -0.004977        -0.919431         2.415429
