19
Iteration:   109charge 0 multiplicity 1
 O         0.832715         0.636762         0.223043
 C        -0.186185         1.035106         1.095536
 C        -1.758835         1.110219         0.473890
 C        -1.951440         1.761750         1.873568
 C        -0.359882         2.372093         1.676800
 O        -2.942312         2.338551         2.589946
 C        -2.356193         1.481619         3.818064
 C        -1.808698         0.552615         2.825738
 C        -0.311720         0.185237         2.409179
 H         1.479097         1.365062         0.025650
 H        -1.642830         1.735239        -0.388515
 H        -2.238970         0.198811         0.140636
 H        -0.301502         3.348133         1.097191
 H         0.319331         2.404118         2.578992
 H        -1.500840         1.992270         4.250490
 H        -3.257156         1.272845         4.349554
 H        -2.572806        -0.158789         2.539145
 H         0.573331         0.292777         3.120440
 H        -0.374201        -0.821843         2.008542
