19
Iteration:   631charge 0 multiplicity 1
 O         0.790963         0.701974         0.119555
 C        -0.128935         0.962863         1.085153
 C        -1.687928         0.956643         0.556811
 C        -1.938504         1.721687         1.838762
 C        -0.533700         2.408714         1.607504
 O        -2.992475         2.347310         2.645640
 C        -2.393081         1.608679         3.805923
 C        -1.637993         0.652222         2.849807
 C        -0.209915         0.089229         2.436964
 H         1.566716         1.342727         0.226372
 H        -1.877119         1.599757        -0.363457
 H        -2.308251        -0.009421         0.451442
 H        -0.848666         3.167683         0.781458
 H        -0.021114         2.915566         2.332156
 H        -1.757485         2.252503         4.459427
 H        -3.136457         1.135874         4.480182
 H        -2.478195        -0.081307         2.661615
 H         0.718669         0.276003         3.118036
 H        -0.333400        -0.969997         2.236414
