19
Iteration:  4478charge 0 multiplicity 1
 O         0.871427         0.738301         0.102623
 C        -0.217413         0.977660         1.054020
 C        -1.667016         0.825645         0.563765
 C        -1.923021         1.730699         1.896069
 C        -0.602455         2.506072         1.521527
 O        -3.042631         2.165918         2.642738
 C        -2.343508         1.645119         3.938752
 C        -1.586157         0.673527         2.901586
 C        -0.170538         0.225651         2.387381
 H         0.500954         1.150210        -0.664985
 H        -1.830187         1.257497        -0.390875
 H        -2.316306        -0.020653         0.563689
 H        -0.784417         3.162469         0.746955
 H        -0.052666         2.963969         2.404255
 H        -1.787561         2.489322         4.291268
 H        -3.183972         1.091966         4.482267
 H        -2.297143        -0.121932         2.849835
 H         0.627027         0.575344         3.059427
 H        -0.069811        -0.812673         2.377412
