19
Iteration:  1503charge 0 multiplicity 1
 O         0.879586         0.868881         0.198731
 C        -0.180424         0.961657         1.075390
 C        -1.910270         0.911934         0.550194
 C        -1.960938         1.659549         1.798839
 C        -0.581248         2.355544         1.561695
 O        -3.059115         2.181951         2.669807
 C        -2.164887         1.724125         3.833801
 C        -1.642749         0.659336         2.822629
 C        -0.161055         0.198500         2.391746
 H         1.260995        -0.018777         0.240139
 H        -1.984988         1.534360        -0.357221
 H        -2.454259        -0.060789         0.519068
 H        -0.706520         3.143318         0.642179
 H        -0.183288         2.787935         2.544321
 H        -1.619532         2.592428         4.064035
 H        -2.710885         1.330585         4.694276
 H        -2.310753        -0.250810         2.815095
 H         0.600012         0.588707         3.086674
 H         0.137151        -0.883527         2.241956
