19
Iteration:  2074
 O         0.795891         0.794098         0.175356
 C        -0.274263         1.075161         0.984833
 C        -1.805261         0.963153         0.443125
 C        -1.943855         1.615156         1.860562
 C        -0.608377         2.418810         1.596297
 O        -3.028357         2.174850         2.680400
 C        -2.254012         1.620078         3.852173
 C        -1.554928         0.609498         2.955256
 C        -0.130596         0.286848         2.376067
 H         1.024349        -0.110078         0.391896
 H        -1.679566         1.823301        -0.250877
 H        -2.135587        -0.027195        -0.021830
 H        -0.773057         3.248436         0.867467
 H        -0.029881         2.625729         2.487456
 H        -1.619967         2.344995         4.309355
 H        -2.953454         1.125022         4.527549
 H        -2.094669        -0.337357         2.849396
 H         0.841623         0.773773         2.825272
 H        -0.072341        -0.810189         2.302334
