19
Iteration:  4134charge 0 multiplicity 1
 O         0.782447         0.712680         0.172074
 C        -0.237006         1.052150         1.054415
 C        -1.735900         0.862943         0.425307
 C        -1.907058         1.642850         1.836377
 C        -0.631447         2.418181         1.517200
 O        -2.974283         2.258829         2.638418
 C        -2.392487         1.669822         3.916936
 C        -1.521995         0.638207         3.009415
 C        -0.067079         0.210532         2.433164
 H         0.759863         1.318300        -0.563421
 H        -1.985495         1.267437        -0.520255
 H        -2.159478        -0.185001         0.462529
 H        -0.890888         3.179132         0.747476
 H        -0.164844         2.879228         2.275585
 H        -1.923871         2.532216         4.386913
 H        -3.316004         1.171793         4.448989
 H        -2.157829        -0.261634         2.939343
 H         0.730255         0.715281         3.058087
 H         0.037516        -0.880648         2.287721
