19
Iteration:  3322charge 0 multiplicity 1
 O         0.815082         0.668039         0.221559
 C        -0.275522         1.048952         1.050951
 C        -1.721311         0.897114         0.578550
 C        -1.891107         1.654666         1.836205
 C        -0.652047         2.485556         1.544583
 O        -2.992573         2.255164         2.638804
 C        -2.270868         1.566726         3.837792
 C        -1.574879         0.585438         2.911869
 C        -0.150457         0.331561         2.351193
 H         0.772636         1.060290        -0.680530
 H        -2.022753         1.446125        -0.347613
 H        -2.092154        -0.024167         0.499821
 H        -0.851356         3.144653         0.741510
 H        -0.071957         2.966513         2.336846
 H        -1.673640         2.235861         4.463911
 H        -3.083694         1.052211         4.471256
 H        -2.259729        -0.250268         2.853418
 H         0.639023         0.796737         3.024266
 H        -0.139846        -0.822690         2.341660
