19
Iteration:  2224charge 0 multiplicity 1
 O         0.803380         0.837745        -0.063486
 C        -0.180800         1.040278         1.019583
 C        -1.756726         0.877598         0.539941
 C        -1.921193         1.657589         1.792059
 C        -0.634296         2.335321         1.692326
 O        -3.027911         2.201614         2.767131
 C        -2.343276         1.653076         3.830120
 C        -1.609715         0.632012         2.839317
 C        -0.102620         0.272613         2.452853
 H         1.454510         0.289347         0.397251
 H        -1.931009         1.399134        -0.437314
 H        -2.293803        -0.053250         0.431540
 H        -0.558454         3.272587         1.097087
 H        -0.280397         2.633228         2.676285
 H        -1.583984         2.290120         4.441497
 H        -3.098593         1.481465         4.555517
 H        -2.181232        -0.298473         2.817527
 H         0.680187         0.745421         3.097733
 H        -0.095862        -0.788324         2.459023
