19
Iteration:  4121
 O         0.858231         0.773534         0.147308
 C        -0.228506         0.963727         1.044967
 C        -1.807057         0.839184         0.651831
 C        -1.954021         1.643295         1.867298
 C        -0.572396         2.407776         1.592449
 O        -3.014193         2.230361         2.590925
 C        -2.340649         1.711807         3.801919
 C        -1.563691         0.632266         2.893917
 C        -0.127120         0.266093         2.401649
 H         0.621400         1.229617        -0.703330
 H        -1.888429         1.394112        -0.224083
 H        -2.319847        -0.147323         0.621457
 H        -0.723622         3.097985         0.747810
 H         0.004862         2.801873         2.309143
 H        -1.835307         2.412838         4.505253
 H        -3.048787         1.172837         4.458596
 H        -2.149508        -0.260484         2.999330
 H         0.794401         0.665144         2.937944
 H         0.101818        -0.780687         2.288385
