19
Iteration:  3015charge 0 multiplicity 1
 O         0.840910         0.765767         0.185375
 C        -0.213631         1.011619         1.000272
 C        -1.671305         0.749159         0.523710
 C        -1.969635         1.651368         1.849750
 C        -0.647032         2.405512         1.539381
 O        -2.987570         2.329830         2.742240
 C        -2.354073         1.618670         3.833269
 C        -1.580672         0.679279         2.916991
 C        -0.163686         0.244171         2.392034
 H         0.626067         1.198147        -0.716201
 H        -2.021270         1.421380        -0.434307
 H        -1.935224        -0.337624         0.429932
 H        -0.876726         3.260568         0.817091
 H        -0.069397         2.766497         2.429915
 H        -1.792095         2.179447         4.554848
 H        -3.199179         1.176419         4.426164
 H        -2.025252        -0.300771         2.709945
 H         0.565127         0.840961         2.850719
 H         0.215845        -0.831060         2.233053
