19
Iteration:    27charge 0 multiplicity 1
 O         0.888097         0.802173         0.232132
 C        -0.130028         0.929266         1.136823
 C        -1.784567         1.211904         0.387569
 C        -1.936271         1.778388         1.826769
 C        -0.452270         2.352310         1.719550
 O        -2.992469         2.326351         2.643990
 C        -2.289718         1.588054         3.801093
 C        -1.741205         0.566004         2.732580
 C        -0.350672        -0.026589         2.402666
 H         1.284067        -0.022049         0.384153
 H        -1.527112         1.957446        -0.384173
 H        -2.500537         0.400352         0.141690
 H        -0.300849         3.131657         0.989326
 H        -0.049574         2.609164         2.747697
 H        -1.548099         2.273587         4.304057
 H        -2.927442         1.334686         4.684269
 H        -2.585273        -0.185619         2.646827
 H         0.460280         0.010169         3.120184
 H        -0.479556        -1.129461         2.060731
