19
Iteration:  1867
 O         0.791044         0.883964         0.102884
 C        -0.236367         1.014351         1.025238
 C        -1.703006         0.927498         0.540514
 C        -1.892150         1.669962         1.902442
 C        -0.541038         2.414734         1.537097
 O        -3.076956         2.178776         2.680699
 C        -2.313428         1.647975         3.849941
 C        -1.631935         0.526934         2.911837
 C        -0.133009         0.260584         2.421874
 H         0.745510        -0.078879        -0.204365
 H        -1.871725         1.491237        -0.373076
 H        -2.025178        -0.054872         0.453116
 H        -0.583459         3.126841         0.632234
 H         0.063478         2.800266         2.443953
 H        -1.706970         2.566889         4.210208
 H        -2.957419         1.248879         4.748025
 H        -2.329741        -0.306878         2.729492
 H         0.688107         0.669062         3.078966
 H        -0.101011        -0.785554         2.277649
