19
Iteration:  1386
 O         0.787343         0.613876         0.139130
 C        -0.255031         1.068405         0.993696
 C        -1.694991         0.893845         0.517792
 C        -1.994783         1.709290         1.821831
 C        -0.669510         2.443161         1.672243
 O        -2.971119         2.207360         2.627475
 C        -2.276055         1.668549         3.965760
 C        -1.570442         0.647844         2.862950
 C        -0.157458         0.272801         2.298131
 H         1.645810         0.773176         0.517956
 H        -1.928603         1.433105        -0.402647
 H        -1.992774        -0.167714         0.490790
 H        -0.699860         3.188324         0.830902
 H        -0.162851         3.008036         2.462653
 H        -1.811338         2.626398         4.450680
 H        -3.176357         1.157841         4.567655
 H        -2.269206        -0.210689         2.857823
 H         0.688253         0.627027         2.967928
 H         0.001277        -0.807033         2.195702
