19
Iteration:  2886charge 0 multiplicity 1
 O         0.870114         0.826113         0.238877
 C        -0.255005         0.974023         1.045114
 C        -1.816552         0.787467         0.493043
 C        -1.994879         1.640142         1.809447
 C        -0.687957         2.349668         1.573338
 O        -2.950414         2.237227         2.675316
 C        -2.203047         1.708446         3.828678
 C        -1.607368         0.669136         2.926282
 C        -0.145479         0.251077         2.372402
 H         0.874884         1.427217        -0.510115
 H        -1.876617         1.175368        -0.495864
 H        -2.336817        -0.106200         0.464788
 H        -0.719547         3.242702         0.910274
 H        -0.142407         2.695374         2.478409
 H        -1.508001         2.477700         4.203077
 H        -2.975691         1.189939         4.522118
 H        -2.315337        -0.206051         2.843267
 H         0.807843         0.639236         2.840787
 H        -0.060002        -0.889769         2.342130
