19
Iteration:   198
 O         0.925949         0.854156         0.406358
 C        -0.257095         0.951491         1.058207
 C        -1.773595         1.071339         0.372541
 C        -1.950719         1.666799         1.824121
 C        -0.534996         2.287267         1.592591
 O        -2.869854         2.398839         2.686584
 C        -2.321970         1.635576         3.803096
 C        -1.687043         0.558024         2.825982
 C        -0.334788         0.075595         2.367632
 H         0.814799         0.531373        -0.513386
 H        -1.790691         1.663716        -0.509271
 H        -2.306579         0.228620        -0.031111
 H        -0.480317         3.064796         0.904257
 H         0.031976         2.581441         2.567064
 H        -1.588471         2.114926         4.451015
 H        -3.080053         1.093874         4.392270
 H        -2.482885        -0.212222         2.795680
 H         0.572587         0.210795         2.943524
 H        -0.320644        -1.047073         2.193954
