19
Iteration:  1172
 O         0.826673         0.755466         0.278497
 C        -0.261897         1.045251         1.097647
 C        -1.743089         0.853794         0.468977
 C        -1.970595         1.718989         1.787095
 C        -0.683013         2.387176         1.528288
 O        -3.027623         2.248746         2.746598
 C        -2.117145         1.663734         3.807562
 C        -1.611264         0.562183         2.829884
 C        -0.234863         0.212976         2.422291
 H         0.999310         1.371141        -0.499567
 H        -1.702612         1.286549        -0.532232
 H        -2.217279        -0.136297         0.482064
 H        -0.688688         2.968484         0.679981
 H        -0.091650         2.901929         2.292773
 H        -1.195094         2.413034         4.019221
 H        -2.689989         1.456442         4.686108
 H        -2.352036        -0.198544         2.708354
 H         0.626166         0.605208         2.999859
 H        -0.078305        -0.848213         2.271695
