19
Iteration:  4686charge 0 multiplicity 1
 O         0.848039         0.821508         0.197211
 C        -0.255847         1.019956         1.025082
 C        -1.675645         0.718100         0.483310
 C        -1.974904         1.624924         1.764980
 C        -0.743637         2.347543         1.523831
 O        -2.880272         2.354493         2.755775
 C        -2.316305         1.671641         3.863265
 C        -1.662025         0.579979         2.907370
 C        -0.115922         0.251758         2.371399
 H         0.806589         1.559305        -0.468861
 H        -1.889155         1.416849        -0.385721
 H        -2.089663        -0.325314         0.608566
 H        -0.853460         3.149267         0.809379
 H        -0.411896         2.868822         2.495655
 H        -1.575727         2.132083         4.358669
 H        -3.181727         1.317738         4.547390
 H        -2.304599        -0.305049         2.859533
 H         0.690508         0.823463         2.956926
 H         0.199603        -0.801201         2.501208
