19
Iteration:  2140charge 0 multiplicity 1
 O         0.842802         0.993118         0.222127
 C        -0.318089         0.992657         1.044061
 C        -1.738686         0.803692         0.437907
 C        -1.963355         1.607072         1.802037
 C        -0.660933         2.389432         1.565196
 O        -2.877757         2.273249         2.770373
 C        -2.201679         1.649181         3.842202
 C        -1.654488         0.572671         2.867502
 C        -0.229573         0.198383         2.372529
 H         0.762442         0.205264        -0.380581
 H        -1.708708         1.431767        -0.498224
 H        -1.994188        -0.325664         0.232425
 H        -0.917831         3.155010         0.807102
 H        -0.274437         2.801663         2.491642
 H        -1.570391         2.403823         4.359437
 H        -2.947417         1.143248         4.509182
 H        -2.392799        -0.255719         2.900955
 H         0.605221         0.698371         3.024499
 H         0.140117        -0.846507         2.302056
