19
Iteration:   523
 O         0.849636         0.723780         0.169191
 C        -0.166952         1.036248         1.076828
 C        -1.770709         0.911790         0.417041
 C        -1.969762         1.525991         1.840561
 C        -0.591098         2.405634         1.728650
 O        -2.931918         2.429436         2.649317
 C        -2.369898         1.797052         3.853347
 C        -1.679619         0.529859         2.860046
 C        -0.206707         0.064731         2.374897
 H         1.314777         1.524339         0.323654
 H        -1.991584         1.614261        -0.448205
 H        -2.040701        -0.189568         0.228705
 H        -0.758219         3.177676         0.817309
 H         0.235771         2.859752         2.480599
 H        -1.440915         2.340375         4.187778
 H        -3.073660         1.334393         4.580944
 H        -2.378974        -0.319675         2.665855
 H         0.682125         0.099569         3.063212
 H        -0.239081        -0.927523         1.989695
