19
Iteration:  1359charge 0 multiplicity 1
 O         0.748324         0.792444         0.050630
 C        -0.240926         1.000870         1.030239
 C        -1.759255         0.929113         0.514172
 C        -1.976391         1.674348         1.821923
 C        -0.547420         2.374572         1.594559
 O        -3.056252         2.204454         2.613481
 C        -2.262146         1.698555         3.821033
 C        -1.536838         0.611422         2.964794
 C        -0.159512         0.136674         2.543847
 H         1.615280         1.161562         0.274382
 H        -1.917583         1.724475        -0.235263
 H        -2.210316        -0.038435         0.281216
 H        -0.616900         3.180189         0.853778
 H         0.081978         2.942690         2.259352
 H        -1.571823         2.475160         4.078286
 H        -3.030068         1.530005         4.506840
 H        -2.237335        -0.243178         2.883715
 H         0.601072         0.405399         3.264531
 H        -0.067237        -0.981004         2.514858
