19
Iteration:   538charge 0 multiplicity 1
 O         0.928990         0.752856         0.175362
 C        -0.212369         0.981112         1.038803
 C        -1.676044         0.869439         0.485906
 C        -1.973691         1.687834         1.830865
 C        -0.660204         2.344498         1.615895
 O        -2.911875         2.416051         2.693838
 C        -2.306491         1.696108         3.858704
 C        -1.710982         0.576407         2.884307
 C        -0.290413         0.102925         2.305429
 H         1.648297         1.384128         0.145668
 H        -1.705449         1.344787        -0.465869
 H        -2.206303        -0.041374         0.427172
 H        -0.769930         3.159696         1.024952
 H        -0.278853         2.677582         2.610909
 H        -1.691556         2.359185         4.440533
 H        -3.132479         1.469612         4.545228
 H        -2.429083        -0.244148         2.937174
 H         0.527369         0.307283         2.951182
 H        -0.331155        -0.997507         2.034460
