19
Iteration:   937
 O         0.838883         0.616857         0.247559
 C        -0.237069         1.028771         1.051003
 C        -1.649175         0.926295         0.456171
 C        -1.935150         1.799880         1.823975
 C        -0.577781         2.576732         1.574484
 O        -3.003957         2.219400         2.730780
 C        -2.206721         1.511529         3.916820
 C        -1.683260         0.637215         2.839056
 C        -0.293465         0.204169         2.351514
 H         0.637438         0.877313        -0.628173
 H        -1.679485         1.548277        -0.460658
 H        -2.243015         0.005501         0.259129
 H        -0.270296         3.244764         0.694758
 H        -0.051606         2.707160         2.414914
 H        -1.497430         2.209033         4.528911
 H        -3.095834         1.161035         4.523602
 H        -2.477801        -0.056105         2.458439
 H         0.396659         0.791310         2.968632
 H        -0.145938        -0.868209         2.241531
