19
Iteration:  3699charge 0 multiplicity 1
 O         0.890042         0.734384         0.267097
 C        -0.250454         0.992587         1.015930
 C        -1.776189         0.866701         0.529331
 C        -1.995058         1.640211         1.837496
 C        -0.647067         2.483188         1.494065
 O        -2.973168         2.286586         2.660245
 C        -2.270840         1.622195         3.863974
 C        -1.569875         0.583268         2.878644
 C        -0.178585         0.271754         2.428714
 H         0.810777         1.228623        -0.515476
 H        -1.999166         1.273345        -0.398944
 H        -2.049352        -0.255233         0.491065
 H        -1.143586         3.071978         0.757435
 H         0.058222         2.940879         2.150161
 H        -1.663425         2.386225         4.306053
 H        -2.909653         1.300070         4.601567
 H        -2.215222        -0.286191         2.839166
 H         0.689530         0.614488         3.005363
 H        -0.049702        -0.908732         2.155543
