19
Iteration:   710
 O         0.764791         0.686070         0.193391
 C        -0.197232         1.095970         1.070852
 C        -1.676163         0.996105         0.517440
 C        -1.903690         1.739700         1.904883
 C        -0.569352         2.468605         1.564130
 O        -3.026852         2.190652         2.663211
 C        -2.288707         1.687610         3.829043
 C        -1.598970         0.557546         2.840247
 C        -0.270953         0.126946         2.352347
 H         1.612577         0.537486         0.708919
 H        -1.659404         1.612008        -0.449793
 H        -2.194883        -0.016656         0.436717
 H        -0.832844         3.114081         0.784397
 H         0.037191         2.988893         2.293379
 H        -1.624572         2.566271         4.138538
 H        -2.917278         1.224095         4.640817
 H        -2.482966        -0.103775         2.596646
 H         0.556610         0.137339         3.114553
 H        -0.306355        -0.937705         1.883764
