19
Iteration:   139charge 0 multiplicity 1
 O         0.796700         0.662199         0.168614
 C        -0.229080         0.911014         1.032262
 C        -1.594952         1.176736         0.391214
 C        -1.921570         1.781872         1.924788
 C        -0.563072         2.401235         1.741018
 O        -2.983042         2.295967         2.614126
 C        -2.369858         1.595832         3.851314
 C        -1.685634         0.654365         2.854852
 C        -0.283040         0.037086         2.351123
 H         1.627669         0.429928         0.713903
 H        -1.354519         1.944992        -0.380676
 H        -2.179810         0.291976         0.073575
 H        -0.480880         3.259043         0.945109
 H        -0.027917         2.659036         2.617891
 H        -1.720360         2.258157         4.502730
 H        -3.200448         1.075665         4.363396
 H        -2.417947        -0.127223         2.592680
 H         0.662532         0.409129         2.938672
 H        -0.228437        -1.008919         2.147227
