19
Iteration:  3012
 O         0.838049         0.769946         0.185479
 C        -0.228490         1.004018         1.011359
 C        -1.665095         0.748603         0.519517
 C        -1.956187         1.669350         1.838463
 C        -0.625542         2.421963         1.528971
 O        -2.986592         2.303738         2.773828
 C        -2.377370         1.619809         3.824349
 C        -1.595870         0.687056         2.909384
 C        -0.163604         0.247845         2.375123
 H         0.637856         1.136698        -0.661301
 H        -2.020715         1.469014        -0.301464
 H        -1.927441        -0.397752         0.316250
 H        -0.786425         3.110117         0.680428
 H        -0.089750         2.710320         2.407594
 H        -1.856446         2.291255         4.631114
 H        -3.161290         1.194447         4.435576
 H        -2.045702        -0.285757         2.745604
 H         0.671231         0.815239         2.801462
 H         0.240926        -0.784910         2.317716
