19
Iteration:  1126charge 0 multiplicity 1
 O         0.923125         0.828459         0.184385
 C        -0.244965         0.946047         1.057009
 C        -1.861574         0.876752         0.478560
 C        -1.961873         1.696527         1.872409
 C        -0.589465         2.398714         1.583791
 O        -3.002551         2.285823         2.660257
 C        -2.312009         1.648181         3.858865
 C        -1.583646         0.658160         2.906238
 C        -0.110685         0.181279         2.371465
 H         0.663254         0.203423        -0.583153
 H        -2.052389         1.435632        -0.472136
 H        -2.372715        -0.117668         0.522325
 H        -0.704173         3.246646         0.838828
 H        -0.026940         2.677617         2.445247
 H        -1.605874         2.502404         4.280283
 H        -3.050910         1.233048         4.567661
 H        -2.286614        -0.215630         2.931986
 H         0.799942         0.505515         2.981572
 H        -0.178105        -0.940346         2.236610
