19
Iteration:   266
 O         0.831721         0.678065         0.179667
 C        -0.273746         0.904498         1.082083
 C        -1.732734         1.131562         0.493960
 C        -1.814068         1.758196         1.804840
 C        -0.481602         2.363114         1.663428
 O        -3.004908         2.288925         2.651203
 C        -2.401336         1.595087         3.800812
 C        -1.731864         0.587690         2.865005
 C        -0.202051         0.107852         2.422637
 H         1.380404         1.409535         0.027899
 H        -1.676247         1.885049        -0.326102
 H        -2.287518         0.308255         0.079522
 H        -0.363561         3.231001         0.977963
 H         0.058636         2.658332         2.578018
 H        -1.702197         2.232893         4.324974
 H        -3.298608         1.434849         4.448601
 H        -2.422807        -0.194502         2.450060
 H         0.670581         0.415735         2.953994
 H        -0.004463        -1.016995         2.400124
