19
Iteration:  2342
 O         0.806213         0.833273         0.136554
 C        -0.197728         1.042841         1.078561
 C        -1.735574         0.877665         0.571133
 C        -1.940161         1.668843         1.837832
 C        -0.596167         2.426678         1.640153
 O        -2.963283         2.246398         2.663847
 C        -2.332147         1.591937         3.846786
 C        -1.581219         0.602545         2.845731
 C        -0.187219         0.226910         2.379801
 H         0.383381         0.493223        -0.662895
 H        -1.811493         1.399537        -0.401610
 H        -2.316473         0.008803         0.530505
 H        -0.644382         3.189626         0.800641
 H         0.068117         2.794232         2.522663
 H        -1.614957         2.271701         4.303363
 H        -3.093130         1.287052         4.551096
 H        -2.147590        -0.316800         2.727457
 H         0.613664         0.473460         3.078706
 H        -0.139330        -0.899219         2.147611
