19
Iteration:  4347charge 0 multiplicity 1
 O         0.878778         0.851867         0.176092
 C        -0.289305         0.914278         1.020960
 C        -1.762117         0.884807         0.520682
 C        -1.921521         1.618728         1.888140
 C        -0.632905         2.357491         1.561500
 O        -2.997935         2.214300         2.649984
 C        -2.308204         1.746495         3.816909
 C        -1.586652         0.574189         2.894776
 C        -0.133432         0.243372         2.447296
 H         0.537387         1.171938        -0.703106
 H        -1.917042         1.454842        -0.418149
 H        -2.350034        -0.054428         0.493986
 H        -0.704331         3.000534         0.834780
 H         0.173128         2.735631         2.206611
 H        -1.528792         2.445667         4.262636
 H        -3.092803         1.593976         4.634323
 H        -2.206477        -0.302231         2.839065
 H         0.545657         0.810675         3.050076
 H         0.000997        -0.772178         2.582407
