19
Iteration:  3039
 O         0.854600         0.777096         0.178993
 C        -0.216444         1.035216         1.102806
 C        -1.838507         0.826344         0.580485
 C        -1.958122         1.631901         1.801349
 C        -0.697877         2.449259         1.574550
 O        -2.895241         2.219450         2.616753
 C        -2.226033         1.644592         3.804253
 C        -1.665619         0.568865         2.896793
 C        -0.154650         0.268285         2.455424
 H         0.855513         1.454428        -0.502332
 H        -1.997305         1.568725        -0.305291
 H        -2.245006        -0.121875         0.411938
 H        -0.723947         3.021242         0.609732
 H        -0.239886         3.029364         2.448316
 H        -1.609243         2.396059         4.209688
 H        -2.956612         1.363767         4.608332
 H        -2.120005        -0.415600         2.801692
 H         0.734681         0.684837         2.998416
 H        -0.019741        -0.805470         2.204301
