19
Iteration:  2560charge 0 multiplicity 1
 O         0.800967         0.884029         0.152505
 C        -0.255885         0.994469         1.035317
 C        -1.814607         0.825599         0.558333
 C        -1.956765         1.641318         1.850919
 C        -0.639391         2.316373         1.645337
 O        -3.009953         2.272293         2.648660
 C        -2.258911         1.735821         3.827248
 C        -1.521842         0.669040         2.875883
 C        -0.157697         0.206478         2.315436
 H         1.460327         0.228448         0.308934
 H        -1.899062         1.230924        -0.542257
 H        -2.295816        -0.198403         0.642004
 H        -0.768808         3.042700         0.811108
 H        -0.058983         2.635277         2.498783
 H        -1.609937         2.467858         4.479626
 H        -2.959073         1.210552         4.487227
 H        -2.085251        -0.288447         2.901546
 H         0.717674         0.613291         2.865215
 H         0.036476        -0.881521         2.223837
