19
Iteration:   119charge 0 multiplicity 1
 O         0.848026         0.581505         0.184315
 C        -0.201581         1.038096         1.043943
 C        -1.775124         1.159985         0.475231
 C        -1.905920         1.703854         1.857279
 C        -0.388834         2.414357         1.769916
 O        -2.957816         2.303430         2.642380
 C        -2.420291         1.610208         3.767667
 C        -1.733807         0.541435         2.760590
 C        -0.302105         0.125651         2.393689
 H         1.654785         1.151792         0.392139
 H        -1.784452         1.922101        -0.294682
 H        -2.406636         0.297747         0.296835
 H        -0.324765         3.301762         1.048454
 H         0.062967         2.661571         2.723958
 H        -1.672789         2.200527         4.342679
 H        -3.145612         1.217943         4.476420
 H        -2.337443        -0.318963         2.543217
 H         0.568921         0.417085         3.074024
 H        -0.191493        -0.919754         2.146265
