19
Iteration:  3588charge 0 multiplicity 1
 O         0.866535         0.794585         0.300863
 C        -0.234331         1.002864         1.027357
 C        -1.852831         0.842555         0.486909
 C        -1.957383         1.653156         1.790505
 C        -0.672496         2.431709         1.528490
 O        -2.977371         2.220716         2.682668
 C        -2.212058         1.715707         3.821741
 C        -1.594734         0.606265         2.914994
 C        -0.173371         0.201327         2.373768
 H         1.029682         1.392337        -0.518360
 H        -2.033828         1.299618        -0.519963
 H        -2.279979        -0.137303         0.646982
 H        -0.705564         3.218738         0.745192
 H         0.004051         2.717656         2.276566
 H        -1.674796         2.427741         4.371064
 H        -2.833161         1.333799         4.575821
 H        -2.255371        -0.238419         2.809937
 H         0.641743         0.526427         3.077427
 H         0.184357        -1.009839         2.279302
