19
Iteration:  1135
 O         0.987141         0.783384         0.211779
 C        -0.247929         1.017595         0.975078
 C        -1.847662         0.927770         0.456049
 C        -1.967402         1.616139         1.846012
 C        -0.708024         2.318361         1.601809
 O        -2.955226         2.291473         2.672514
 C        -2.258819         1.685669         3.859791
 C        -1.558099         0.643393         2.969764
 C        -0.212609         0.246137         2.385628
 H         0.503180         0.294519        -0.550685
 H        -1.947705         1.518386        -0.495769
 H        -2.322977        -0.095947         0.410363
 H        -0.827937         3.195568         0.758284
 H        -0.129620         2.773496         2.407608
 H        -1.709759         2.512049         4.446655
 H        -2.957382         1.164187         4.597475
 H        -2.241846        -0.256060         2.797407
 H         0.723592         0.338542         3.036350
 H        -0.046943        -0.876990         2.119736
