19
Iteration:  3141charge 0 multiplicity 1
 O         0.953268         0.767652         0.043262
 C        -0.255744         0.942838         1.046006
 C        -1.787654         0.845367         0.463807
 C        -1.957747         1.716404         1.822691
 C        -0.611068         2.432927         1.564629
 O        -3.045721         2.237482         2.698803
 C        -2.312097         1.571066         3.899985
 C        -1.616625         0.656487         2.958907
 C        -0.152359         0.289901         2.490864
 H         0.588450         1.189143        -0.757513
 H        -1.911964         1.297382        -0.505215
 H        -2.252874        -0.210845         0.596481
 H        -0.484102         3.181956         0.691593
 H        -0.064427         2.934006         2.465020
 H        -1.615545         2.257089         4.469897
 H        -3.161904         1.361170         4.513581
 H        -2.166035        -0.312088         2.665376
 H         0.824895         0.790997         3.134422
 H        -0.017732        -0.813434         2.691122
