19
Iteration:   842
 O         0.792484         0.744904         0.172139
 C        -0.223483         1.050646         1.087377
 C        -1.695453         0.958066         0.470412
 C        -1.927345         1.619428         1.851213
 C        -0.645744         2.412105         1.696124
 O        -2.913128         2.290336         2.601638
 C        -2.172269         1.689346         3.777685
 C        -1.690225         0.582719         2.921409
 C        -0.321375         0.092995         2.396583
 H         1.445488         1.476196         0.046858
 H        -1.851049         1.699457        -0.374828
 H        -2.166961        -0.037441         0.150714
 H        -0.770107         3.162146         0.935010
 H        -0.108702         2.797511         2.594506
 H        -1.368473         2.217554         4.258315
 H        -2.954365         1.396942         4.495784
 H        -2.399159        -0.290357         2.920617
 H         0.510238         0.309177         3.075207
 H        -0.358035        -0.941657         1.908364
