19
Iteration:  2323
 O         0.791540         0.824313         0.211840
 C        -0.269202         0.984852         1.109106
 C        -1.837016         1.039947         0.524149
 C        -1.870939         1.611153         1.829538
 C        -0.639490         2.468005         1.556244
 O        -2.962537         2.230586         2.592008
 C        -2.193989         1.600775         3.788752
 C        -1.575905         0.538657         2.921129
 C        -0.138130         0.121560         2.490005
 H         0.490095         1.056540        -0.643350
 H        -1.926539         1.758035        -0.257871
 H        -2.213452         0.035320         0.303460
 H        -0.991867         3.087010         0.663321
 H        -0.267209         3.092649         2.460698
 H        -1.580161         2.357541         4.277888
 H        -2.924315         1.141622         4.392519
 H        -2.386429        -0.158100         2.687306
 H         0.771320         0.502344         3.083843
 H         0.004737        -0.914588         2.349475
