19
Iteration:   303
 O         0.808250         0.703878         0.195512
 C        -0.195534         0.959860         1.055284
 C        -1.658755         0.929387         0.438391
 C        -1.879261         1.785296         1.854018
 C        -0.565187         2.442736         1.648367
 O        -2.840505         2.390226         2.714472
 C        -2.447268         1.570780         3.817925
 C        -1.766958         0.531861         2.789064
 C        -0.281535         0.129631         2.396126
 H         1.572329         1.189324         0.531908
 H        -1.804159         1.628993        -0.379929
 H        -2.144755        -0.080656         0.370734
 H        -0.590907         3.245775         0.843531
 H        -0.050566         2.781342         2.547057
 H        -1.640213         2.115544         4.390627
 H        -3.245364         1.281292         4.499854
 H        -2.529897        -0.185148         2.510171
 H         0.664334         0.372422         2.907976
 H        -0.241662        -0.829337         2.029169
