19
Iteration:  4181charge 0 multiplicity 1
 O         0.877097         0.726231         0.313005
 C        -0.281634         1.012911         1.063553
 C        -1.925632         0.837697         0.538164
 C        -1.959562         1.670623         1.781269
 C        -0.596492         2.477562         1.462073
 O        -2.970031         2.182899         2.717233
 C        -2.221214         1.641635         3.808538
 C        -1.641664         0.611038         2.820803
 C        -0.121869         0.311297         2.477011
 H         1.013941         1.322733        -0.521888
 H        -2.159880         1.383201        -0.497790
 H        -2.240030        -0.161486         0.369650
 H        -0.520760         3.187344         0.661652
 H         0.079325         2.864479         2.324953
 H        -1.359686         2.284917         3.914893
 H        -2.901596         1.336961         4.655079
 H        -2.193789        -0.348185         2.614739
 H         0.648278         0.857844         2.978310
 H         0.033240        -0.812761         2.411837
