19
Iteration:   309
 O         0.801612         0.717863         0.209112
 C        -0.273500         0.973338         1.066168
 C        -1.622239         0.929858         0.451450
 C        -1.873152         1.789221         1.904033
 C        -0.592198         2.422542         1.634748
 O        -2.854751         2.405150         2.722831
 C        -2.433439         1.567829         3.752573
 C        -1.724741         0.547150         2.765953
 C        -0.263245         0.112837         2.388137
 H         1.527128         1.121614         0.659493
 H        -1.698913         1.529334        -0.487221
 H        -2.220509         0.039807         0.447481
 H        -0.573412         3.218082         0.899121
 H        -0.007742         2.989296         2.441770
 H        -1.566741         2.023178         4.220334
 H        -3.147101         1.286442         4.565284
 H        -2.435445        -0.251791         2.430751
 H         0.609456         0.218880         3.052466
 H        -0.308878        -1.033448         2.103366
