19
Iteration:  4397charge 0 multiplicity 1
 O         0.841753         0.711803         0.223879
 C        -0.253166         1.069278         1.100980
 C        -1.743074         0.878565         0.569127
 C        -1.962904         1.653079         1.871915
 C        -0.626381         2.458688         1.513632
 O        -3.030935         2.129009         2.664951
 C        -2.212838         1.721777         3.821374
 C        -1.604226         0.666880         2.888391
 C        -0.149446         0.158974         2.329927
 H         1.003829         1.432818        -0.335450
 H        -1.839359         1.488495        -0.401237
 H        -2.119112        -0.177546         0.497403
 H        -0.772602         3.198433         0.530704
 H        -0.321618         3.169940         2.276060
 H        -1.669904         2.537729         4.208080
 H        -2.749359         1.414041         4.706339
 H        -2.412843        -0.114064         2.807786
 H         0.624703         0.501452         3.040207
 H        -0.152820        -0.981810         2.111009
