19
Iteration:   510charge 0 multiplicity 1
 O         0.786484         0.759554         0.196557
 C        -0.241390         0.984637         1.117787
 C        -1.743533         1.021657         0.507575
 C        -1.955096         1.626083         1.842725
 C        -0.494849         2.359046         1.640271
 O        -2.927712         2.286645         2.583970
 C        -2.283994         1.707522         3.745076
 C        -1.667245         0.556503         2.929727
 C        -0.265487         0.084736         2.388411
 H         1.407589         1.522468         0.046023
 H        -1.836876         1.757750        -0.337346
 H        -2.167383         0.001037         0.208531
 H        -0.617265         3.233454         0.857249
 H        -0.055570         2.713447         2.567248
 H        -1.627769         2.476581         4.221181
 H        -3.060210         1.510984         4.492009
 H        -2.419691        -0.256014         2.950995
 H         0.600338         0.401989         3.044106
 H        -0.207114        -0.970139         2.201730
