19
Iteration:  1657
 O         0.877290         1.016481         0.256584
 C        -0.291932         0.957140         1.056561
 C        -1.815817         0.859393         0.570615
 C        -2.005686         1.665146         1.795029
 C        -0.681223         2.308849         1.445396
 O        -2.915463         2.311808         2.681198
 C        -2.177615         1.600250         3.907098
 C        -1.602450         0.594957         2.840240
 C        -0.208865         0.179835         2.383659
 H         1.198615         0.091397         0.043570
 H        -1.814293         1.201646        -0.416342
 H        -2.309104        -0.094485         0.562795
 H        -0.747489         2.880231         0.458478
 H        -0.083306         2.930842         2.129368
 H        -1.541035         2.367264         4.382584
 H        -2.906401         1.138209         4.580498
 H        -2.322501        -0.213058         2.899751
 H         0.633765         0.549726         2.975493
 H        -0.155176        -0.857199         2.200548
