19
Iteration:  1562charge 0 multiplicity 1
 O         0.858366         0.880816         0.101632
 C        -0.245131         0.975087         1.034844
 C        -1.689612         0.825738         0.558734
 C        -1.929034         1.720425         1.827096
 C        -0.610495         2.415808         1.453074
 O        -2.994916         2.318851         2.745417
 C        -2.363289         1.598015         3.822354
 C        -1.632116         0.610623         2.914513
 C        -0.154419         0.195181         2.492816
 H         0.785417         0.078570        -0.405385
 H        -1.875023         1.189181        -0.474389
 H        -2.091520        -0.179808         0.729197
 H        -0.754963         3.150253         0.772569
 H        -0.281064         2.950039         2.288932
 H        -1.548813         2.223993         4.215112
 H        -2.946189         1.112701         4.616163
 H        -2.254791        -0.242576         2.944111
 H         0.752577         0.504840         3.118668
 H        -0.171502        -0.839920         2.202803
