19
Iteration:  4062charge 0 multiplicity 1
 O         0.907558         0.715029         0.281506
 C        -0.278580         1.038884         0.982697
 C        -1.764292         0.835811         0.447434
 C        -1.967060         1.621386         1.814258
 C        -0.746317         2.500068         1.558357
 O        -3.009935         2.236448         2.667558
 C        -2.175573         1.707917         3.880643
 C        -1.612659         0.588324         2.923717
 C        -0.150557         0.238096         2.432133
 H         1.105103         1.171274        -0.491084
 H        -1.957642         1.462616        -0.556969
 H        -2.109658        -0.196422         0.472556
 H        -1.027197         3.120425         0.697335
 H        -0.111127         2.915435         2.532508
 H        -1.323109         2.414336         3.982473
 H        -2.863311         1.398585         4.577764
 H        -2.296069        -0.302641         2.884173
 H         0.760958         0.512608         2.895473
 H        -0.260909        -0.868714         2.159156
