19
Iteration:  1680
 O         0.969649         0.975742         0.137801
 C        -0.245358         0.996078         0.992687
 C        -1.909002         0.821230         0.455748
 C        -1.947304         1.566551         1.848775
 C        -0.659550         2.362167         1.514504
 O        -2.906391         2.309714         2.733167
 C        -2.324948         1.674583         3.853986
 C        -1.605626         0.563434         2.946466
 C        -0.184162         0.162382         2.483455
 H         1.025606         0.104269        -0.291181
 H        -2.019279         1.509144        -0.325164
 H        -2.236871        -0.096222         0.109859
 H        -0.932332         3.119152         0.759289
 H        -0.064892         2.848291         2.296007
 H        -1.583740         2.379796         4.173598
 H        -3.011519         1.438659         4.667589
 H        -2.311302        -0.226938         2.891414
 H         0.608497         0.667547         3.085832
 H        -0.030549        -0.841072         2.353932
