19
Iteration:   591charge 0 multiplicity 1
 O         0.847741         0.581242         0.149838
 C        -0.246072         1.000016         1.043402
 C        -1.771960         1.047560         0.491403
 C        -1.910183         1.670212         1.880910
 C        -0.558757         2.423847         1.671321
 O        -2.972574         2.286932         2.625143
 C        -2.301034         1.612633         3.789738
 C        -1.660174         0.604315         2.803583
 C        -0.231929         0.226876         2.474591
 H         1.610704         1.160249         0.145145
 H        -1.933012         1.853826        -0.226952
 H        -2.272835         0.126399         0.211027
 H        -0.645947         3.119415         0.846159
 H         0.002421         2.987587         2.614850
 H        -1.627813         2.348965         4.272710
 H        -3.126447         1.252641         4.447149
 H        -2.221292        -0.318962         2.681910
 H         0.490362         0.650477         3.120534
 H        -0.180519        -0.885873         2.425319
