19
Iteration:    94charge 0 multiplicity 1
 O         0.851274         0.705406         0.273174
 C        -0.246220         0.960188         1.076848
 C        -1.617642         1.072263         0.462136
 C        -1.866091         1.757501         1.825401
 C        -0.418049         2.378462         1.683353
 O        -2.935178         2.410567         2.649768
 C        -2.361976         1.514688         3.852451
 C        -1.765719         0.560941         2.737703
 C        -0.408285         0.059467         2.377684
 H         0.844502         1.545278        -0.298299
 H        -1.616401         1.782960        -0.403171
 H        -2.211586         0.146813         0.397242
 H        -0.474262         3.091397         0.784176
 H         0.138350         2.792113         2.498204
 H        -1.703393         2.181698         4.463574
 H        -3.100631         1.008856         4.539577
 H        -2.469704        -0.255292         2.488905
 H         0.349774         0.435292         3.143462
 H        -0.264571        -1.008087         2.236307
