19
Iteration:  1392
 O         0.798248         0.609574         0.123789
 C        -0.203857         1.085715         1.003651
 C        -1.724551         0.885554         0.493943
 C        -1.962493         1.677952         1.826079
 C        -0.687967         2.521399         1.604726
 O        -3.019200         2.254743         2.667215
 C        -2.275895         1.605374         3.931675
 C        -1.503124         0.685786         2.850581
 C        -0.189124         0.216407         2.395466
 H         1.661515         0.683694         0.657228
 H        -2.036282         1.382120        -0.445804
 H        -2.039257        -0.166079         0.411116
 H        -0.898367         3.173735         0.735879
 H        -0.130853         2.842278         2.534780
 H        -1.721494         2.293401         4.517811
 H        -3.116685         1.338267         4.491563
 H        -2.276775        -0.112748         2.846696
 H         0.576861         0.669220         3.001695
 H         0.016664        -0.852912         2.114378
