19
Iteration:  4948charge 0 multiplicity 1
 O         0.792587         0.887431         0.245535
 C        -0.278563         1.034121         1.048141
 C        -1.815714         0.796278         0.521202
 C        -1.945198         1.643664         1.759459
 C        -0.535690         2.422134         1.416976
 O        -3.015821         2.143055         2.737919
 C        -2.228252         1.699394         3.828981
 C        -1.591500         0.565758         2.863686
 C        -0.148789         0.320721         2.515206
 H         0.817363         0.045370        -0.338835
 H        -1.873765         1.233060        -0.406849
 H        -2.514082        -0.093379         0.520144
 H        -0.600846         3.219817         0.537716
 H        -0.109924         2.928176         2.242996
 H        -1.383411         2.370574         4.178719
 H        -2.831946         1.230696         4.682535
 H        -2.366671        -0.249701         2.570419
 H         0.504974         0.910726         3.183845
 H         0.390471        -0.645095         2.456682
