19
Iteration:  2438
 O         0.908168         0.924258         0.120912
 C        -0.242248         0.964875         1.027213
 C        -1.691119         0.918689         0.394979
 C        -1.979547         1.613589         1.808859
 C        -0.623363         2.364316         1.556942
 O        -3.015213         2.230172         2.793972
 C        -2.223464         1.707876         3.928818
 C        -1.599763         0.657994         2.882262
 C        -0.297352         0.128834         2.438593
 H         1.073818        -0.004501        -0.004368
 H        -1.861477         1.684837        -0.480199
 H        -2.077034        -0.081853         0.071449
 H        -0.762028         2.998356         0.715729
 H        -0.179998         2.756965         2.379584
 H        -1.576530         2.504229         4.405816
 H        -3.034916         1.300874         4.611049
 H        -2.315248        -0.168919         2.699772
 H         0.485912         0.464254         3.047687
 H        -0.216345        -0.971192         2.268156
