19
Iteration:  1973charge 0 multiplicity 1
 O         0.786202         0.952584         0.128094
 C        -0.269504         1.010857         1.113188
 C        -1.651349         0.888241         0.493930
 C        -1.953252         1.632166         1.823757
 C        -0.601689         2.409409         1.647454
 O        -3.044905         2.121956         2.649503
 C        -2.192941         1.689151         3.846458
 C        -1.607201         0.641602         2.931609
 C        -0.232928         0.164565         2.349352
 H         0.786204        -0.009990        -0.151185
 H        -1.832766         1.484253        -0.434726
 H        -2.155478        -0.134528         0.370900
 H        -0.601888         3.099138         0.843637
 H        -0.073758         2.851984         2.457967
 H        -1.465818         2.466270         4.055250
 H        -2.782117         1.539664         4.714213
 H        -2.287477        -0.158772         2.744090
 H         0.584515         0.548315         3.049069
 H         0.008598        -0.886278         2.241792
