19
Iteration:  3330
 O         0.878727         0.681235         0.181463
 C        -0.232985         0.973601         0.964440
 C        -1.784894         0.815863         0.551252
 C        -1.894229         1.702815         1.883949
 C        -0.667478         2.531409         1.545353
 O        -2.969396         2.242326         2.684100
 C        -2.321600         1.593257         3.842755
 C        -1.592943         0.619611         2.911848
 C        -0.165531         0.301424         2.389081
 H         0.733241         1.102034        -0.673258
 H        -1.740622         1.534149        -0.245056
 H        -2.170488        -0.224750         0.453774
 H        -0.743768         3.409413         0.868179
 H        -0.257972         2.941000         2.471500
 H        -1.816614         2.298809         4.434688
 H        -3.010625         1.123575         4.511188
 H        -2.329984        -0.165612         2.788289
 H         0.579959         0.752928         3.106776
 H         0.066527        -0.790256         2.173626
