19
Iteration:  4190charge 0 multiplicity 1
 O         0.893209         0.754758         0.336859
 C        -0.294490         0.989748         1.063620
 C        -1.861463         0.857595         0.516775
 C        -1.979341         1.672520         1.788004
 C        -0.609359         2.399509         1.461573
 O        -2.973357         2.179112         2.684537
 C        -2.166403         1.641214         3.752697
 C        -1.557162         0.611635         2.872654
 C        -0.205195         0.316135         2.424975
 H         0.736430         1.360148        -0.480800
 H        -1.998026         1.611448        -0.316612
 H        -2.495231        -0.052677         0.524476
 H        -0.797610         3.145424         0.683899
 H        -0.122956         2.816427         2.263238
 H        -1.539407         2.387232         4.310158
 H        -2.886572         1.484616         4.710246
 H        -2.256438        -0.272528         2.857950
 H         0.649523         0.737509         3.030199
 H         0.016792        -0.808615         2.316420
