19
Iteration:  3236
 O         0.874247         0.839939         0.239312
 C        -0.263439         1.014047         1.044606
 C        -1.800810         0.820383         0.539497
 C        -1.947556         1.629188         1.855637
 C        -0.739803         2.402276         1.542325
 O        -2.950343         2.270797         2.615329
 C        -2.189579         1.700403         3.827622
 C        -1.587769         0.635203         2.895866
 C        -0.175392         0.118962         2.418174
 H         0.723728         1.551994        -0.486304
 H        -1.745324         1.530029        -0.350190
 H        -2.064673        -0.263230         0.474531
 H        -0.904436         3.086010         0.725457
 H        -0.094340         2.927423         2.294098
 H        -1.601518         2.457468         4.401275
 H        -2.974497         1.234833         4.547937
 H        -2.149699        -0.272684         2.731953
 H         0.662474         0.323616         3.024518
 H        -0.240882        -0.973314         2.282124
