19
Iteration:  2217
 O         0.761279         0.815747        -0.013142
 C        -0.133510         0.998545         1.080555
 C        -1.728098         0.894903         0.536055
 C        -1.952052         1.618185         1.815561
 C        -0.623523         2.441300         1.702066
 O        -3.065091         2.212961         2.741336
 C        -2.319035         1.641135         3.834945
 C        -1.569517         0.660295         2.832661
 C        -0.110203         0.251560         2.351133
 H         1.400217         0.186459         0.263771
 H        -2.007333         1.601852        -0.269967
 H        -2.289163        -0.153144         0.477776
 H        -0.621505         3.187159         0.918623
 H        -0.084802         2.701727         2.603541
 H        -1.755263         2.474285         4.360620
 H        -3.091707         1.177701         4.571107
 H        -2.053292        -0.340679         2.808908
 H         0.612731         0.697526         3.107308
 H        -0.082833        -0.838631         2.462323
