19
Iteration:   974
 O         0.854649         0.791374         0.189837
 C        -0.216878         0.940908         1.054205
 C        -1.845197         0.968643         0.558342
 C        -1.940558         1.649412         1.884978
 C        -0.571492         2.354402         1.645307
 O        -2.956061         2.360458         2.576546
 C        -2.325777         1.670812         3.826064
 C        -1.629526         0.529494         2.942053
 C        -0.155263         0.125515         2.330420
 H         0.770853         1.421463        -0.569512
 H        -1.859466         1.745482        -0.252778
 H        -2.328810         0.005907         0.263816
 H        -0.447153         3.282879         0.918358
 H         0.043605         2.691843         2.594631
 H        -1.752455         2.397851         4.325288
 H        -3.084004         1.274411         4.473571
 H        -2.373111        -0.270476         2.947347
 H         0.767181         0.320658         2.853258
 H         0.041812        -0.951700         2.090554
