19
Iteration:  3262charge 0 multiplicity 1
 O         0.853508         0.762161         0.226703
 C        -0.210703         1.086390         1.047826
 C        -1.797194         0.802833         0.493310
 C        -1.941878         1.596564         1.828608
 C        -0.624912         2.436920         1.526760
 O        -3.021046         2.248589         2.695646
 C        -2.271409         1.726625         3.843658
 C        -1.631980         0.580959         2.944138
 C        -0.148558         0.209672         2.354820
 H         0.890249         1.487836        -0.479749
 H        -1.867698         1.464939        -0.343136
 H        -2.287200        -0.261910         0.480911
 H        -0.649820         3.278264         0.734483
 H         0.005198         2.739952         2.390017
 H        -1.534763         2.392606         4.314800
 H        -2.959893         1.437451         4.572509
 H        -2.189471        -0.362852         2.793260
 H         0.752508         0.422160         2.974544
 H        -0.022837        -0.833161         2.141205
