19
Iteration:  2365
 O         0.908545         0.856165         0.055752
 C        -0.183083         0.990167         0.921109
 C        -1.609821         0.852488         0.379278
 C        -1.946627         1.733679         1.918346
 C        -0.559394         2.354444         1.550152
 O        -3.130993         2.278929         2.849921
 C        -2.377563         1.597336         3.965518
 C        -1.696227         0.699739         2.900689
 C        -0.191179         0.186911         2.373018
 H         0.874674        -0.060122        -0.246277
 H        -1.990453         1.387370        -0.461102
 H        -1.993383        -0.123717         0.293078
 H        -0.380747         3.228631         0.784905
 H         0.177099         2.574439         2.492184
 H        -1.781949         2.380846         4.426190
 H        -2.958687         1.058051         4.664150
 H        -2.299557        -0.188668         2.851293
 H         0.578974         0.753595         2.985924
 H         0.034295        -0.918623         2.422733
