19
Iteration:  3856charge 0 multiplicity 1
 O         0.859696         0.686732         0.197503
 C        -0.208402         1.055704         1.039618
 C        -1.803111         0.882658         0.540458
 C        -2.006254         1.612246         1.853064
 C        -0.564186         2.458791         1.549089
 O        -3.035293         2.191077         2.652927
 C        -2.295841         1.680643         3.841592
 C        -1.541154         0.687028         2.880230
 C        -0.181656         0.252337         2.447658
 H         0.939381         1.252926        -0.609386
 H        -2.113002         1.372717        -0.443231
 H        -1.907616        -0.147380         0.479299
 H        -0.627129         3.149357         0.757559
 H        -0.117160         2.937289         2.450104
 H        -1.637895         2.435458         4.155526
 H        -2.818780         1.080127         4.522509
 H        -2.155405        -0.229265         2.753289
 H         0.677997         0.683400         3.017883
 H        -0.286381        -0.916557         2.295263
