19
Iteration:    34charge 0 multiplicity 1
 O         0.922835         0.801338         0.271299
 C        -0.229164         0.970291         1.083299
 C        -1.741284         1.176450         0.414065
 C        -1.872316         1.771906         1.834491
 C        -0.479978         2.374346         1.712339
 O        -2.937986         2.281109         2.673107
 C        -2.349674         1.648180         3.813889
 C        -1.765166         0.536473         2.736822
 C        -0.379437        -0.015905         2.368084
 H         1.141774        -0.143053         0.240857
 H        -1.518583         1.846805        -0.409827
 H        -2.491655         0.431802         0.153829
 H        -0.330992         3.222920         1.094444
 H         0.033466         2.445876         2.684541
 H        -1.448020         2.172501         4.118197
 H        -2.972054         1.480667         4.682993
 H        -2.567906        -0.174536         2.532955
 H         0.487796         0.148305         2.988297
 H        -0.347801        -1.063559         2.049633
