19
Iteration:   931
 O         0.838796         0.575516         0.270473
 C        -0.279779         1.067810         1.067091
 C        -1.640338         0.972249         0.446933
 C        -1.974989         1.772056         1.807684
 C        -0.589414         2.499684         1.583744
 O        -3.004738         2.273997         2.746201
 C        -2.236754         1.510525         3.892716
 C        -1.629655         0.614503         2.767631
 C        -0.253472         0.248885         2.349698
 H         0.702846         0.829699        -0.708840
 H        -1.780354         1.561084        -0.477894
 H        -2.158587         0.001967         0.324020
 H        -0.569169         3.353318         0.774378
 H         0.055297         2.778830         2.579228
 H        -1.472949         2.018592         4.409336
 H        -2.935249         1.186878         4.638777
 H        -2.355811        -0.189267         2.610563
 H         0.422376         0.709716         3.093354
 H        -0.062407        -0.854506         2.311752
