19
Iteration:   447
 O         0.897365         0.613511         0.321359
 C        -0.291034         1.066436         0.993325
 C        -1.696673         0.994893         0.496283
 C        -1.889575         1.734208         1.887348
 C        -0.640981         2.459871         1.601429
 O        -2.832680         2.365222         2.616975
 C        -2.360858         1.487542         3.842447
 C        -1.673164         0.616926         2.828348
 C        -0.276439         0.111203         2.380596
 H         0.706775         1.018859        -0.620810
 H        -1.950874         1.678582        -0.352172
 H        -1.974513        -0.007180         0.077593
 H        -0.775832         3.308684         0.880078
 H        -0.204152         3.122729         2.454789
 H        -1.769894         2.142192         4.551348
 H        -3.196158         1.122161         4.483608
 H        -2.388779        -0.221775         2.702461
 H         0.572497         0.681253         2.846197
 H        -0.160822        -0.942763         2.413374
