19
Iteration:  1663charge 0 multiplicity 1
 O         0.878297         1.024204         0.247876
 C        -0.199510         0.922463         1.035644
 C        -1.814980         0.865315         0.506720
 C        -1.985808         1.639648         1.843751
 C        -0.701127         2.327907         1.425597
 O        -2.938556         2.329202         2.661669
 C        -2.171886         1.627422         3.913813
 C        -1.651489         0.571429         2.896851
 C        -0.189938         0.191103         2.389726
 H         1.178017         0.130402        -0.055423
 H        -2.029304         1.395583        -0.526412
 H        -2.521449        -0.035597         0.696564
 H        -0.785721         2.851266         0.469674
 H        -0.124894         2.907903         2.175148
 H        -1.482652         2.234041         4.606294
 H        -2.945063         1.133598         4.540922
 H        -2.373868        -0.314286         2.898111
 H         0.688726         0.518319         2.964006
 H        -0.120549        -0.983644         2.335137
