19
Iteration:  1032
 O         0.842013         0.735835         0.229075
 C        -0.200975         0.989799         1.083900
 C        -1.782184         0.973482         0.515891
 C        -1.924119         1.802625         1.833857
 C        -0.651694         2.480230         1.467384
 O        -2.978414         2.185796         2.757953
 C        -2.211650         1.631375         3.823781
 C        -1.651328         0.599130         2.829093
 C        -0.288929         0.097362         2.391280
 H         1.667985         1.180509         0.321233
 H        -1.873537         1.507799        -0.415244
 H        -2.171043        -0.020450         0.414978
 H        -0.676034         2.999694         0.562812
 H         0.186869         2.983284         2.188600
 H        -1.504540         2.321000         4.167371
 H        -2.828201         1.244093         4.618803
 H        -2.439195        -0.085574         2.625456
 H         0.552528         0.409505         3.039825
 H        -0.268939        -0.957176         2.147652
