19
Iteration:  2952
 O         0.813851         0.666632         0.236812
 C        -0.284019         1.079574         1.048865
 C        -1.696506         0.846860         0.444052
 C        -1.987020         1.673331         1.780893
 C        -0.672018         2.395632         1.580086
 O        -3.037341         2.200107         2.690890
 C        -2.204090         1.659346         3.870821
 C        -1.567136         0.611723         2.882328
 C        -0.139139         0.300761         2.392275
 H         0.882400         1.350822        -0.480316
 H        -1.726931         1.468691        -0.405326
 H        -2.098493        -0.072770         0.338607
 H        -0.915162         3.330427         1.055956
 H        -0.021951         2.726847         2.407704
 H        -1.480047         2.394981         4.191023
 H        -3.008819         1.415007         4.631955
 H        -2.269469        -0.222119         3.057637
 H         0.691730         0.936736         2.825293
 H         0.057140        -0.793866         2.345594
