19
Iteration:  3810
 O         0.877132         0.703740         0.194369
 C        -0.163993         1.060401         1.021295
 C        -1.782530         0.913854         0.495901
 C        -1.910063         1.646409         1.805395
 C        -0.619746         2.376913         1.499226
 O        -2.994105         2.215032         2.723785
 C        -2.282154         1.634050         3.841587
 C        -1.653882         0.601970         2.889218
 C        -0.173101         0.304864         2.532020
 H         0.625402         1.167493        -0.692841
 H        -1.971427         1.446115        -0.445374
 H        -2.394394        -0.016872         0.445189
 H        -0.923786         2.926376         0.668978
 H        -0.055314         3.058195         2.159101
 H        -1.566076         2.379489         4.248752
 H        -3.021083         1.290952         4.495102
 H        -2.323579        -0.280628         2.704921
 H         0.458681         0.941817         3.187299
 H         0.014678        -0.861344         2.331850
