19
Iteration:  2087
 O         0.788286         0.875953         0.161296
 C        -0.310032         0.983903         1.018477
 C        -1.733660         0.954219         0.430743
 C        -2.007092         1.615333         1.816435
 C        -0.505255         2.354986         1.633379
 O        -3.013404         2.126421         2.668984
 C        -2.296967         1.660726         3.972169
 C        -1.556960         0.677914         2.877520
 C        -0.152976         0.302186         2.312178
 H         1.143446        -0.049787         0.118653
 H        -2.038880         1.422454        -0.464203
 H        -2.162356        -0.049412         0.356344
 H        -0.394189         3.261584         0.975006
 H        -0.038782         2.675284         2.638478
 H        -1.851915         2.522823         4.321957
 H        -2.927377         1.237629         4.825209
 H        -2.254519        -0.185475         3.014634
 H         0.798391         0.578602         2.840235
 H         0.017478        -0.817936         2.154412
