19
Iteration:  1052charge 0 multiplicity 1
 O         0.816362         0.689828         0.216357
 C        -0.271443         1.011033         0.973651
 C        -1.796887         0.947881         0.482063
 C        -1.984315         1.627297         1.820844
 C        -0.545068         2.458550         1.576430
 O        -2.971328         2.275954         2.676392
 C        -2.244013         1.583132         3.911149
 C        -1.581526         0.639714         2.856284
 C        -0.216884         0.252382         2.347780
 H         1.515849         0.836200         0.863717
 H        -1.919321         1.489658        -0.454181
 H        -2.362923         0.023621         0.374208
 H        -0.717008         3.234481         0.887764
 H         0.024217         2.815255         2.500720
 H        -1.597149         2.228330         4.439828
 H        -2.967655         1.212175         4.561744
 H        -2.239724        -0.184721         2.792213
 H         0.636614         0.620898         2.854457
 H        -0.275298        -0.750417         2.073309
