19
Iteration:   297
 O         0.844120         0.689221         0.168111
 C        -0.178865         0.988352         1.072006
 C        -1.705491         0.964577         0.459748
 C        -1.905831         1.716535         1.790511
 C        -0.513149         2.448388         1.641078
 O        -2.858288         2.391686         2.689040
 C        -2.405919         1.554827         3.891516
 C        -1.781265         0.567323         2.834063
 C        -0.315598         0.150685         2.376124
 H         1.704537         1.213014         0.317480
 H        -1.826098         1.616579        -0.424900
 H        -2.075236        -0.032515         0.231223
 H        -0.596934         3.161733         0.868737
 H        -0.022709         2.558599         2.687502
 H        -1.830438         2.154635         4.609362
 H        -3.374905         1.223657         4.351555
 H        -2.552682        -0.196024         2.592676
 H         0.540853         0.522678         3.004882
 H        -0.125887        -0.983509         2.066307
