19
Iteration:  3080
 O         0.950645         0.740557         0.225173
 C        -0.205544         0.997475         1.033005
 C        -1.774961         0.848879         0.484300
 C        -2.024519         1.610035         1.818006
 C        -0.649508         2.425928         1.537362
 O        -3.076705         2.122985         2.745559
 C        -2.191435         1.735226         3.858730
 C        -1.545557         0.721975         2.911822
 C        -0.241914         0.255586         2.310987
 H         0.981876         1.511136        -0.331836
 H        -2.009842         1.589724        -0.425037
 H        -2.182091        -0.151291         0.272813
 H        -0.676076         3.127954         0.721423
 H        -0.334276         2.667527         2.506741
 H        -1.409120         2.421183         4.258973
 H        -2.843221         1.483731         4.745542
 H        -2.347427        -0.009555         2.871666
 H         0.573982         0.488929         2.898230
 H        -0.194852        -0.876030         2.304083
