19
Iteration:  4933
 O         0.872396         0.901075         0.218882
 C        -0.256180         0.983095         1.060576
 C        -1.766532         0.747089         0.533190
 C        -1.993808         1.649519         1.816438
 C        -0.689531         2.444765         1.472104
 O        -2.958945         2.241938         2.691788
 C        -2.192720         1.581666         3.859440
 C        -1.615494         0.651982         2.875327
 C        -0.196286         0.326436         2.424851
 H         0.736356         0.046445        -0.270147
 H        -1.979225         1.144049        -0.533211
 H        -1.990829        -0.320725         0.562538
 H        -0.801918         3.122422         0.500448
 H         0.041409         2.828194         2.300720
 H        -1.572484         2.355720         4.252472
 H        -2.881391         1.364661         4.597960
 H        -2.235738        -0.229855         2.941633
 H         0.652858         0.767097         2.990122
 H        -0.118378        -0.751882         2.388247
