19
Iteration:  2297charge 0 multiplicity 1
 O         0.922730         0.726584         0.171499
 C        -0.252976         1.008311         0.990076
 C        -1.717619         0.925700         0.508158
 C        -1.999058         1.656794         1.837624
 C        -0.635544         2.323498         1.583449
 O        -3.044643         2.190068         2.776750
 C        -2.202430         1.644871         3.877507
 C        -1.662843         0.653465         2.866932
 C        -0.231434         0.330992         2.312319
 H         1.222594         1.543188        -0.200670
 H        -1.907436         1.482328        -0.431123
 H        -2.018698        -0.095853         0.369502
 H        -0.679771         3.179152         0.868442
 H        -0.002084         2.584382         2.541856
 H        -1.589280         2.449300         4.289865
 H        -2.802260         1.193469         4.704305
 H        -2.406106        -0.156341         2.761789
 H         0.589642         0.671128         2.888599
 H        -0.097634        -0.827139         2.126511
