19
Iteration:  3432charge 0 multiplicity 1
 O         0.891811         0.769732         0.254345
 C        -0.263315         1.056547         1.079272
 C        -1.782446         0.846736         0.459008
 C        -1.942467         1.637461         1.853650
 C        -0.651479         2.441377         1.500212
 O        -2.984268         2.217130         2.676260
 C        -2.221853         1.668623         3.845797
 C        -1.555570         0.639507         2.928916
 C        -0.250207         0.165812         2.373317
 H         0.659909         1.437776        -0.434522
 H        -2.159563         1.566666        -0.374892
 H        -2.290721        -0.078536         0.395828
 H        -0.657074         2.982258         0.578738
 H         0.018418         2.941790         2.220276
 H        -1.682107         2.475592         4.173444
 H        -2.948946         1.191593         4.547171
 H        -2.255654        -0.201376         2.877601
 H         0.624802         0.612437         2.999150
 H         0.120452        -0.975564         2.452467
