19
Iteration:  2529
 O         0.812200         0.695016         0.136616
 C        -0.207594         1.057836         1.034291
 C        -1.728878         0.914792         0.504417
 C        -1.902611         1.684835         1.850171
 C        -0.642745         2.531851         1.422727
 O        -2.978258         2.171770         2.714791
 C        -2.278345         1.611262         3.940626
 C        -1.585515         0.614486         2.909521
 C        -0.289787         0.213460         2.429286
 H         1.643712         1.238891         0.322971
 H        -1.845711         1.430111        -0.456374
 H        -2.185046        -0.090201         0.512861
 H        -0.960371         3.067429         0.486281
 H         0.018318         3.030109         2.217604
 H        -1.525741         2.307813         4.450421
 H        -3.011927         1.174318         4.581105
 H        -2.356922        -0.122738         2.806564
 H         0.606346         0.597973         3.049669
 H        -0.164527        -0.830094         2.115171
