19
Iteration:  2088charge 0 multiplicity 1
 O         0.791653         0.884027         0.154719
 C        -0.301841         0.983947         1.020609
 C        -1.729647         0.949378         0.431757
 C        -2.010640         1.617440         1.821521
 C        -0.511004         2.355901         1.633484
 O        -3.017507         2.124282         2.671341
 C        -2.297134         1.666621         3.968465
 C        -1.552533         0.683476         2.875915
 C        -0.158596         0.288914         2.313614
 H         1.156457        -0.062333         0.087594
 H        -2.037485         1.373912        -0.451815
 H        -2.191210        -0.003473         0.420790
 H        -0.375377         3.248049         0.977334
 H        -0.004226         2.674459         2.645367
 H        -1.828942         2.546940         4.323127
 H        -2.955326         1.232359         4.807432
 H        -2.254253        -0.189812         2.987638
 H         0.737116         0.556549         2.838099
 H         0.037809        -0.832307         2.158968
