19
Iteration:  4004charge 0 multiplicity 1
 O         0.788580         0.739613         0.111615
 C        -0.229023         1.009056         1.066149
 C        -1.676019         0.872092         0.578964
 C        -1.880770         1.602091         1.829804
 C        -0.679376         2.407260         1.533392
 O        -2.927170         2.224948         2.653137
 C        -2.335596         1.695506         3.837421
 C        -1.609314         0.616000         2.928979
 C        -0.179116         0.266791         2.455062
 H         0.835339         1.355909        -0.710072
 H        -1.811831         1.511247        -0.289468
 H        -2.073520        -0.219594         0.444797
 H        -0.736983         3.130216         0.633852
 H        -0.263032         2.985878         2.447458
 H        -1.964192         2.409484         4.460609
 H        -3.125363         1.249962         4.494455
 H        -2.298802        -0.216614         2.711083
 H         0.537819         0.707771         3.129295
 H         0.131441        -0.759375         2.486597
