19
Iteration:  4659charge 0 multiplicity 1
 O         0.906455         0.764065         0.209440
 C        -0.272207         1.025787         0.996329
 C        -1.812604         0.862302         0.533538
 C        -1.925843         1.663721         1.856007
 C        -0.663900         2.421496         1.520773
 O        -2.977846         2.243414         2.637684
 C        -2.307085         1.604418         3.826463
 C        -1.509752         0.615770         2.950899
 C        -0.175249         0.261982         2.426706
 H         0.683843         1.042069        -0.728876
 H        -1.993380         1.626415        -0.173821
 H        -2.333554        -0.067079         0.517680
 H        -0.861281         3.150629         0.715890
 H        -0.148271         2.846154         2.279650
 H        -1.718158         2.380003         4.494237
 H        -2.993101         1.077944         4.414444
 H        -2.163220        -0.286233         2.961529
 H         0.632577         0.678229         3.018471
 H        -0.018647        -0.815785         2.420587
