19
Iteration:  1318
 O         0.770372         0.815272         0.115554
 C        -0.268159         1.032026         1.058183
 C        -1.701547         0.781184         0.513818
 C        -2.028564         1.635077         1.866689
 C        -0.627249         2.361721         1.606707
 O        -2.957396         2.362521         2.663075
 C        -2.261132         1.697496         3.852215
 C        -1.642538         0.572473         2.836570
 C        -0.158086         0.206712         2.410798
 H         1.486495         1.353603         0.439172
 H        -1.886251         1.142266        -0.512297
 H        -1.877863        -0.319135         0.555645
 H        -0.453537         3.068196         0.686016
 H        -0.029049         2.723126         2.440877
 H        -1.486715         2.492290         4.206263
 H        -2.997468         1.249858         4.692276
 H        -2.313203        -0.329592         2.936630
 H         0.794776         0.489138         2.917747
 H        -0.069002        -0.929565         2.236395
