19
Iteration:  1289
 O         0.897242         0.661684         0.169698
 C        -0.282977         1.018064         0.992041
 C        -1.807991         0.908142         0.490526
 C        -1.960968         1.633184         1.897954
 C        -0.724742         2.479268         1.483214
 O        -2.916152         2.202384         2.726482
 C        -2.292346         1.671770         3.847236
 C        -1.552345         0.638478         2.878487
 C        -0.216749         0.268517         2.419844
 H         1.645092         1.023047         0.644183
 H        -1.930845         1.706873        -0.241920
 H        -2.205103        -0.086264         0.188715
 H        -0.692950         3.169774         0.595679
 H        -0.149984         3.105516         2.197109
 H        -1.710197         2.432152         4.308303
 H        -2.964240         1.204237         4.584907
 H        -2.215043        -0.234838         2.872213
 H         0.738971         0.470772         2.928088
 H        -0.218617        -0.812261         2.272251
