19
Iteration:  1838
 O         0.856097         0.859022         0.168646
 C        -0.257359         1.027237         1.027949
 C        -1.836077         0.991438         0.449909
 C        -1.916734         1.579762         1.854705
 C        -0.684814         2.404167         1.676714
 O        -3.027717         2.148903         2.634581
 C        -2.194777         1.717475         3.761098
 C        -1.492588         0.599537         2.957300
 C        -0.156257         0.210862         2.431191
 H         0.768971        -0.002894        -0.218929
 H        -2.030142         1.580987        -0.489652
 H        -2.312348        -0.052363         0.258198
 H        -0.703234         3.259934         0.993015
 H        -0.273237         2.901983         2.543011
 H        -1.690785         2.572349         4.125315
 H        -2.764140         1.238361         4.582065
 H        -2.284930        -0.211826         3.068343
 H         0.783314         0.379098         2.934913
 H        -0.341367        -0.934089         2.246515
