19
Iteration:   540
 O         0.926931         0.754782         0.178546
 C        -0.211744         0.959212         1.037023
 C        -1.667963         0.882850         0.499280
 C        -1.992154         1.700067         1.831276
 C        -0.654074         2.343538         1.610656
 O        -2.900112         2.397975         2.696528
 C        -2.294850         1.678676         3.843685
 C        -1.711421         0.602827         2.902356
 C        -0.313965         0.106719         2.304389
 H         1.585062         1.414874         0.210647
 H        -1.725944         1.352026        -0.468894
 H        -2.155845        -0.088966         0.412335
 H        -0.699114         3.219409         0.979646
 H        -0.309301         2.648155         2.511307
 H        -1.697398         2.372987         4.421173
 H        -3.108315         1.397653         4.498292
 H        -2.445101        -0.212425         2.884125
 H         0.539754         0.374409         2.961678
 H        -0.316617        -0.988016         2.043533
