19
Iteration:   831charge 0 multiplicity 1
 O         0.811809         0.728668         0.222926
 C        -0.281259         0.982504         1.046304
 C        -1.723944         1.044698         0.482443
 C        -1.986691         1.579363         1.830416
 C        -0.574439         2.377243         1.640227
 O        -2.912025         2.291905         2.652466
 C        -2.242769         1.695448         3.790375
 C        -1.635839         0.490010         2.880779
 C        -0.287387         0.193784         2.341669
 H         1.359986         1.460478         0.378421
 H        -1.652346         1.875427        -0.293569
 H        -2.228621         0.073873         0.134373
 H        -0.778977         3.223253         0.993616
 H        -0.050193         2.731127         2.545846
 H        -1.516105         2.488049         3.961171
 H        -2.844280         1.610286         4.707199
 H        -2.379688        -0.361114         2.935487
 H         0.592853         0.391845         2.970120
 H        -0.175520        -0.967339         2.312179
