19
Iteration:   389
 O         0.845031         0.820839         0.184454
 C        -0.205923         1.012605         1.092680
 C        -1.743251         1.020629         0.422001
 C        -1.874783         1.745741         1.827084
 C        -0.506161         2.420212         1.713846
 O        -2.905619         2.227018         2.642239
 C        -2.338962         1.702831         3.759816
 C        -1.684016         0.587797         2.860380
 C        -0.331007         0.041033         2.464558
 H         0.754599        -0.039456        -0.189450
 H        -1.616270         1.609632        -0.495726
 H        -2.349887         0.081867         0.309238
 H        -0.772029         3.272780         0.992962
 H         0.006944         2.588445         2.583544
 H        -1.636523         2.350688         4.280145
 H        -3.040440         1.254036         4.436577
 H        -2.389719        -0.236848         2.759172
 H         0.582562         0.191857         3.035396
 H        -0.415795        -0.979704         2.178917
