19
Iteration:   844charge 0 multiplicity 1
 O         0.793439         0.746640         0.161093
 C        -0.214626         1.063280         1.097769
 C        -1.694544         0.947991         0.461917
 C        -1.926763         1.629038         1.849885
 C        -0.652148         2.417477         1.691234
 O        -2.920011         2.292091         2.599295
 C        -2.169039         1.694212         3.791878
 C        -1.708851         0.591065         2.918973
 C        -0.306799         0.074358         2.399914
 H         1.463749         1.499217        -0.002640
 H        -1.851682         1.636981        -0.386557
 H        -2.140293        -0.046919         0.232014
 H        -0.754523         3.069749         1.002471
 H        -0.097036         2.798571         2.604383
 H        -1.325003         2.245865         4.321847
 H        -2.966902         1.311063         4.459639
 H        -2.438894        -0.221248         2.866351
 H         0.532667         0.252043         3.070948
 H        -0.386314        -0.955572         1.926318
