19
Iteration:  2598charge 0 multiplicity 1
 O         0.846054         0.850216         0.092828
 C        -0.175261         0.986493         1.024891
 C        -1.727235         0.896743         0.533152
 C        -1.949782         1.625992         1.870585
 C        -0.648617         2.390302         1.537460
 O        -3.036125         2.219680         2.659469
 C        -2.152051         1.740896         3.810752
 C        -1.645279         0.509044         2.920959
 C        -0.197127         0.193847         2.535772
 H         0.284386         1.004558        -0.676230
 H        -1.759009         1.408085        -0.362612
 H        -2.064530        -0.101929         0.459094
 H        -1.022782         2.996447         0.687278
 H        -0.175380         3.109807         2.319731
 H        -1.412008         2.493073         4.022803
 H        -2.834783         1.501708         4.652375
 H        -2.439628        -0.242554         2.950034
 H         0.425619         0.713544         3.303764
 H        -0.072309        -0.904629         2.604812
