19
Iteration:   649
 O         0.850497         0.813053         0.126817
 C        -0.299170         0.932245         1.047587
 C        -1.813490         0.953842         0.530851
 C        -1.889257         1.739876         1.902611
 C        -0.494297         2.422666         1.533790
 O        -2.889503         2.265113         2.576234
 C        -2.300095         1.607357         3.833161
 C        -1.688845         0.543109         2.865722
 C        -0.337721         0.148674         2.517729
 H         1.580111         1.351540         0.602521
 H        -1.766161         1.495790        -0.383610
 H        -2.382862         0.071579         0.417917
 H        -0.331923         3.010609         0.637459
 H         0.139154         2.785457         2.472365
 H        -1.624651         2.306247         4.279558
 H        -3.087942         1.365939         4.516564
 H        -2.412859        -0.225425         2.675807
 H         0.445399         0.532094         3.159018
 H        -0.123812        -0.900049         2.390423
