19
Iteration:  2165charge 0 multiplicity 1
 O         0.989343         0.883179         0.170133
 C        -0.238168         1.014152         1.012630
 C        -1.892463         0.921607         0.504711
 C        -2.024606         1.713452         1.819999
 C        -0.653912         2.363019         1.519867
 O        -3.072065         2.273648         2.750188
 C        -2.167619         1.550547         3.898939
 C        -1.606839         0.585914         2.844363
 C        -0.141226         0.251667         2.365198
 H         0.936321        -0.061613         0.137901
 H        -1.832975         1.426937        -0.419680
 H        -2.329739        -0.065345         0.491526
 H        -0.840489         3.111610         0.724370
 H        -0.073390         2.714382         2.480600
 H        -1.529815         2.252243         4.306752
 H        -2.949915         1.140433         4.568537
 H        -2.198397        -0.351668         2.827516
 H         0.676694         0.640716         2.960922
 H         0.101784        -0.889205         2.407384
