19
Iteration:  2749charge 0 multiplicity 1
 O         0.810040         0.763093         0.206724
 C        -0.279890         0.941530         1.055569
 C        -1.838999         0.865112         0.469028
 C        -1.983287         1.670828         1.809170
 C        -0.649212         2.422106         1.509268
 O        -3.042920         2.147138         2.731836
 C        -2.172865         1.754760         3.816880
 C        -1.508774         0.643610         2.857058
 C        -0.148266         0.247817         2.430055
 H         1.485429         1.458795         0.350935
 H        -2.028733         1.283029        -0.485057
 H        -2.264966        -0.167315         0.336430
 H        -0.781018         3.111963         0.691013
 H        -0.272363         2.891849         2.426499
 H        -1.500837         2.591158         4.214644
 H        -2.742256         1.351805         4.638780
 H        -2.126274        -0.220525         2.963726
 H         0.820943         0.593148         2.861888
 H         0.043251        -0.793751         2.420044
