19
Iteration:  4633charge 0 multiplicity 1
 O         0.814185         0.665600         0.178563
 C        -0.244306         1.057585         1.097992
 C        -1.723782         0.920796         0.527411
 C        -1.945585         1.779441         1.841161
 C        -0.552335         2.504656         1.528774
 O        -3.141371         2.054475         2.680914
 C        -2.301373         1.659671         3.857733
 C        -1.521890         0.628225         2.863439
 C        -0.114157         0.255362         2.404415
 H         0.509732         1.077581        -0.677335
 H        -1.729241         1.553683        -0.349651
 H        -2.289837        -0.077047         0.499800
 H        -0.648673         3.073984         0.600043
 H         0.242362         3.031159         2.341813
 H        -1.637905         2.561508         4.180088
 H        -2.847314         1.270313         4.835163
 H        -2.163427        -0.241756         2.851207
 H         0.613933         0.603470         3.129711
 H        -0.038965        -0.832179         2.191205
