19
Iteration:  4414
 O         0.908837         0.738383         0.259209
 C        -0.212446         0.993461         1.029780
 C        -1.825828         0.895003         0.496608
 C        -2.013424         1.659045         1.808782
 C        -0.596016         2.431544         1.424581
 O        -3.058300         2.210195         2.728232
 C        -2.207774         1.614669         3.857110
 C        -1.597290         0.596553         2.884375
 C        -0.196033         0.310331         2.453084
 H         1.031950         1.443625        -0.338314
 H        -2.017525         1.323689        -0.454945
 H        -2.412741        -0.079869         0.378041
 H        -0.742646         3.124957         0.696344
 H         0.190113         2.818696         2.113742
 H        -1.405620         2.386558         4.268275
 H        -2.869207         1.289286         4.732809
 H        -2.195573        -0.305249         2.854720
 H         0.631973         0.743466         3.020811
 H        -0.097108        -0.715601         2.284607
