19
Iteration:  1049charge 0 multiplicity 1
 O         0.827840         0.686113         0.217683
 C        -0.298227         1.032698         0.985879
 C        -1.791652         0.949163         0.498282
 C        -1.975511         1.635811         1.814740
 C        -0.526641         2.473829         1.547958
 O        -2.970912         2.260436         2.682062
 C        -2.227026         1.569769         3.887621
 C        -1.573275         0.647142         2.852856
 C        -0.236354         0.229556         2.362929
 H         1.437399         0.947988         0.919438
 H        -1.970816         1.517348        -0.458422
 H        -2.376680        -0.005130         0.367908
 H        -0.644071         3.336958         0.787057
 H        -0.138285         2.796228         2.431126
 H        -1.558318         2.308504         4.504781
 H        -2.971248         1.177594         4.631077
 H        -2.328860        -0.194077         2.801129
 H         0.622941         0.567142         2.965696
 H        -0.299703        -0.836001         2.046647
