19
Iteration:  2852charge 0 multiplicity 1
 O         0.839590         0.641179         0.157159
 C        -0.258616         1.041795         1.042438
 C        -1.638833         0.922250         0.481566
 C        -1.985325         1.642552         1.885895
 C        -0.690914         2.486627         1.506472
 O        -3.011722         2.163844         2.704582
 C        -2.203207         1.601628         3.838297
 C        -1.654271         0.612527         2.961238
 C        -0.179812         0.366086         2.424523
 H         0.824000         1.081975        -0.667060
 H        -1.578161         1.555738        -0.381005
 H        -1.967349        -0.030455         0.415587
 H        -0.986930         3.080289         0.588423
 H         0.001649         3.045268         2.187858
 H        -1.461584         2.355741         4.215461
 H        -2.868261         1.336713         4.792023
 H        -2.482596        -0.155568         2.899888
 H         0.653850         0.776659         3.015761
 H        -0.111982        -0.797909         2.266750
