19
Iteration:  1134charge 0 multiplicity 1
 O         0.985144         0.788555         0.207058
 C        -0.250234         1.005690         0.981963
 C        -1.854660         0.922088         0.451209
 C        -1.966274         1.627421         1.851809
 C        -0.697442         2.322155         1.601327
 O        -2.961322         2.292450         2.669560
 C        -2.262643         1.683041         3.861902
 C        -1.560925         0.648259         2.967882
 C        -0.197605         0.241670         2.384441
 H         0.493447         0.294833        -0.525448
 H        -1.959691         1.500467        -0.495697
 H        -2.325722        -0.091547         0.441914
 H        -0.810214         3.208329         0.777394
 H        -0.103498         2.780409         2.426640
 H        -1.731320         2.483114         4.394213
 H        -2.965648         1.155290         4.595923
 H        -2.242789        -0.245756         2.795308
 H         0.719710         0.312308         3.034601
 H        -0.031430        -0.870803         2.128084
