19
Iteration:    44
 O         0.945237         0.792637         0.336828
 C        -0.313040         0.981973         1.006382
 C        -1.676644         1.135563         0.454507
 C        -1.876586         1.729005         1.836638
 C        -0.466363         2.345577         1.766978
 O        -2.899625         2.301340         2.677759
 C        -2.319944         1.638626         3.788351
 C        -1.798733         0.526352         2.810299
 C        -0.406237         0.058441         2.247108
 H         0.846073        -0.070372        -0.019705
 H        -1.751467         1.854282        -0.351528
 H        -2.170095         0.191970         0.198014
 H        -0.506113         3.251198         1.093813
 H         0.262092         2.542852         2.551152
 H        -1.497217         2.238629         4.235125
 H        -3.153561         1.442614         4.447445
 H        -2.580873        -0.101533         2.432667
 H         0.383877         0.384444         2.960370
 H        -0.328280        -0.998826         2.102829
