19
Iteration:  3209charge 0 multiplicity 1
 O         0.933420         0.752777         0.186568
 C        -0.216671         0.977605         1.039102
 C        -1.777453         0.900013         0.475386
 C        -2.012732         1.650411         1.835294
 C        -0.620686         2.350539         1.589303
 O        -3.028175         2.196258         2.755606
 C        -2.229143         1.710393         3.831684
 C        -1.655295         0.603076         2.877717
 C        -0.222085         0.299996         2.378409
 H         0.776200         1.478454        -0.531801
 H        -1.820650         1.244768        -0.507349
 H        -1.995053        -0.207102         0.444986
 H        -0.646392         3.022415         0.653769
 H         0.042295         2.932520         2.262465
 H        -1.499695         2.481604         4.213224
 H        -2.816679         1.366288         4.695730
 H        -2.212717        -0.379274         2.825241
 H         0.549484         1.043871         2.960922
 H        -0.115687        -0.859094         2.392624
