19
Iteration:   973charge 0 multiplicity 1
 O         0.854819         0.790156         0.188548
 C        -0.205849         0.950289         1.055862
 C        -1.841879         0.972905         0.561775
 C        -1.946661         1.651939         1.890903
 C        -0.573741         2.352327         1.640664
 O        -2.964561         2.359552         2.581449
 C        -2.323921         1.664553         3.820187
 C        -1.621661         0.535390         2.941423
 C        -0.159360         0.119545         2.333086
 H         0.764279         1.384538        -0.558581
 H        -1.850972         1.759201        -0.248171
 H        -2.344046         0.000423         0.273774
 H        -0.423134         3.287849         0.895562
 H         0.044192         2.689043         2.520520
 H        -1.723291         2.404045         4.334320
 H        -3.127041         1.281773         4.457456
 H        -2.391807        -0.272457         2.922050
 H         0.768130         0.288088         2.846415
 H         0.055908        -0.962955         2.113679
