19
Iteration:  1946
 O         0.908812         0.879464         0.134429
 C        -0.218804         0.988462         1.083502
 C        -1.824571         0.940926         0.440894
 C        -2.003543         1.654178         1.781546
 C        -0.626645         2.399550         1.596470
 O        -3.083933         2.180851         2.761089
 C        -2.218481         1.617859         3.813458
 C        -1.559452         0.692900         2.896339
 C        -0.152725         0.206972         2.407377
 H         1.071312        -0.101417         0.083760
 H        -1.892242         1.500447        -0.492985
 H        -2.230529        -0.070539         0.402639
 H        -0.763355         3.076978         0.675391
 H        -0.158347         2.906132         2.510552
 H        -1.509430         2.302126         4.397449
 H        -2.948980         1.262372         4.659272
 H        -2.151826        -0.242081         2.692737
 H         0.681960         0.535267         2.988270
 H        -0.109016        -0.916254         2.320428
