19
Iteration:  4007charge 0 multiplicity 1
 O         0.802671         0.750801         0.104818
 C        -0.231099         0.985953         1.083372
 C        -1.692321         0.860978         0.557407
 C        -1.881243         1.621984         1.824592
 C        -0.679937         2.431161         1.508646
 O        -2.938641         2.231008         2.657309
 C        -2.344684         1.681873         3.833998
 C        -1.586840         0.614430         2.940488
 C        -0.193921         0.233089         2.467755
 H         0.805353         1.362767        -0.621389
 H        -1.770309         1.591242        -0.350664
 H        -2.091188        -0.157507         0.481582
 H        -0.807753         3.115833         0.673739
 H        -0.209459         3.004926         2.429868
 H        -1.917472         2.553575         4.546086
 H        -3.073779         1.269973         4.479363
 H        -2.238294        -0.274034         2.740764
 H         0.499035         0.695651         3.127757
 H         0.241352        -0.812712         2.504212
