19
Iteration:  1820charge 0 multiplicity 1
 O         0.898414         0.936241         0.159554
 C        -0.227512         0.989350         1.031532
 C        -1.703327         0.851359         0.505290
 C        -2.064734         1.629068         1.800071
 C        -0.640430         2.348911         1.568647
 O        -3.055594         2.198332         2.739750
 C        -2.204087         1.709077         3.929367
 C        -1.635537         0.664776         2.868494
 C        -0.184384         0.169763         2.329042
 H         0.943908         0.046912        -0.156545
 H        -1.745998         1.491748        -0.366215
 H        -2.257176        -0.068365         0.222289
 H        -0.672636         3.195395         0.873630
 H         0.101684         2.636125         2.370045
 H        -1.445284         2.483401         4.216937
 H        -2.861986         1.487082         4.736772
 H        -2.230602        -0.236807         2.917357
 H         0.651007         0.610544         2.942008
 H        -0.113359        -0.920832         2.267924
