19
Iteration:  2237
 O         0.794432         0.891407        -0.012483
 C        -0.266097         0.986495         0.974580
 C        -1.761472         0.883332         0.468680
 C        -1.997016         1.657205         1.863341
 C        -0.592508         2.403821         1.641363
 O        -2.965434         2.251027         2.659774
 C        -2.277947         1.598091         3.883648
 C        -1.642074         0.565952         2.943980
 C        -0.165955         0.243553         2.519343
 H         1.627479         0.547778         0.383034
 H        -1.771806         1.417818        -0.521343
 H        -2.140145        -0.221452         0.495708
 H        -0.678780         3.246109         0.953772
 H         0.017581         2.555516         2.472490
 H        -1.520944         2.430002         4.209695
 H        -2.925399         1.152966         4.665719
 H        -2.352302        -0.259616         2.713181
 H         0.685344         0.760589         3.107292
 H         0.161037        -0.745055         2.417064
