19
Iteration:  1407charge 0 multiplicity 1
 O         0.807426         0.694537         0.123891
 C        -0.229009         0.989516         1.049723
 C        -1.732754         0.903914         0.521473
 C        -1.926949         1.702038         1.821986
 C        -0.658703         2.498981         1.445606
 O        -2.989152         2.267806         2.764175
 C        -2.312791         1.584521         3.796143
 C        -1.648345         0.611945         2.904546
 C        -0.138704         0.285080         2.461731
 H         1.641210         0.508938         0.584299
 H        -1.724488         1.521804        -0.382132
 H        -2.270151        -0.061175         0.456529
 H        -0.795379         3.342064         0.721910
 H        -0.152193         3.023575         2.191837
 H        -1.576550         2.337290         4.250510
 H        -2.850943         0.912880         4.579156
 H        -2.242182        -0.303689         2.669815
 H         0.784299         0.443621         3.092543
 H        -0.206445        -0.812616         2.410338
