19
Iteration:  1209charge 0 multiplicity 1
 O         0.791393         0.801326         0.094426
 C        -0.244503         1.002222         0.962244
 C        -1.735065         0.889304         0.555333
 C        -1.937170         1.647101         1.904689
 C        -0.593763         2.313869         1.503764
 O        -2.972079         2.253357         2.650801
 C        -2.373568         1.701171         3.852672
 C        -1.592245         0.656544         3.026580
 C        -0.118662         0.189980         2.384400
 H         1.603451         1.257983         0.285045
 H        -1.911661         1.402415        -0.399678
 H        -2.249683        -0.069431         0.561488
 H        -0.814136         2.965627         0.584476
 H        -0.075294         2.735382         2.369787
 H        -1.749096         2.409933         4.386312
 H        -3.262236         1.453576         4.552280
 H        -2.113616        -0.334061         3.063803
 H         0.761514         0.649151         2.853563
 H        -0.221512        -0.928725         2.339182
