19
Iteration:  1068
 O         0.825617         0.719604         0.066259
 C        -0.268840         1.012323         1.035572
 C        -1.726534         0.964274         0.472994
 C        -1.942676         1.683659         1.904746
 C        -0.673090         2.338651         1.634596
 O        -2.955584         2.316711         2.710305
 C        -2.344801         1.653009         3.799503
 C        -1.620334         0.572204         2.906933
 C        -0.126101         0.244096         2.360008
 H         1.524986         0.285864         0.529300
 H        -1.878247         1.636078        -0.396397
 H        -2.169342        -0.028551         0.244689
 H        -0.720255         3.203537         0.864089
 H        -0.008810         2.692692         2.532340
 H        -1.718947         2.417523         4.402630
 H        -3.092044         1.254773         4.596258
 H        -2.313474        -0.348954         2.867818
 H         0.653227         0.793288         3.014321
 H         0.165335        -0.883413         2.341397
