19
Iteration:   894
 O         0.872860         0.727019         0.242322
 C        -0.252067         0.957551         0.994489
 C        -1.877237         1.060400         0.474459
 C        -1.948027         1.674326         1.838819
 C        -0.533032         2.346336         1.572771
 O        -2.871469         2.311004         2.600127
 C        -2.342749         1.575240         3.937973
 C        -1.617281         0.598222         2.844687
 C        -0.228487         0.150390         2.447292
 H         1.036738         1.521374        -0.300524
 H        -1.924823         1.738589        -0.412412
 H        -2.392372         0.070057         0.376900
 H        -0.779876         3.286049         0.740570
 H         0.036977         2.732138         2.402407
 H        -1.700713         2.362344         4.329889
 H        -3.150558         1.193837         4.592161
 H        -2.158517        -0.386284         2.848223
 H         0.498952         0.643720         3.119289
 H         0.041473        -0.905961         2.300179
