19
Iteration:  3380
 O         0.814769         0.764343         0.232457
 C        -0.285987         1.037593         1.021085
 C        -1.800501         0.896198         0.497941
 C        -1.903744         1.625960         1.827928
 C        -0.682775         2.456077         1.582602
 O        -2.920286         2.166314         2.625530
 C        -2.242484         1.702574         3.819165
 C        -1.622101         0.585513         2.886980
 C        -0.148439         0.197660         2.438228
 H         0.814751         1.483009        -0.391152
 H        -1.832814         1.500545        -0.406708
 H        -2.165548        -0.159859         0.734055
 H        -0.884217         3.175512         0.715544
 H        -0.011406         2.907280         2.346902
 H        -1.366758         2.439882         4.185007
 H        -2.977718         1.616942         4.651209
 H        -2.326351        -0.299584         2.811313
 H         0.649293         0.552047         3.098970
 H        -0.039662        -0.913315         2.440562
