19
Iteration:  4229
 O         0.852140         0.801854         0.130721
 C        -0.151822         1.031383         1.045758
 C        -1.666879         0.782956         0.510932
 C        -1.946255         1.570138         1.847840
 C        -0.669272         2.386754         1.575570
 O        -3.018128         2.233782         2.702736
 C        -2.289250         1.804024         3.805882
 C        -1.609025         0.620102         2.989704
 C        -0.245220         0.221049         2.357989
 H         0.746060         1.343277        -0.614200
 H        -1.800018         1.162434        -0.471744
 H        -2.136115        -0.256455         0.552961
 H        -0.725521         3.315402         0.900342
 H        -0.072655         2.753462         2.552598
 H        -1.612326         2.556850         4.268501
 H        -2.871924         1.422557         4.570315
 H        -2.259155        -0.234663         3.025913
 H         0.593147         0.344551         3.060564
 H        -0.332665        -0.756433         2.017884
