19
Iteration:  4747
 O         0.850553         0.664847         0.194025
 C        -0.248344         1.022996         0.971465
 C        -1.780467         0.933089         0.475877
 C        -1.995131         1.561397         1.862141
 C        -0.677470         2.414426         1.626755
 O        -3.067545         2.112427         2.607495
 C        -2.216343         1.727270         3.859193
 C        -1.521524         0.727091         2.968106
 C        -0.144337         0.295724         2.377730
 H         1.417214         1.368577        -0.254809
 H        -1.950814         1.622511        -0.438187
 H        -2.166917        -0.062674         0.373549
 H        -0.989583         3.310213         0.939598
 H        -0.129363         2.637573         2.579792
 H        -1.597310         2.639933         4.332675
 H        -2.840724         1.437507         4.647582
 H        -2.019866        -0.241117         3.206788
 H         0.820592         0.611536         2.782431
 H        -0.134556        -0.736754         2.110192
