19
Iteration:  1878charge 0 multiplicity 1
 O         0.846709         0.886775         0.036861
 C        -0.204104         0.994916         1.022403
 C        -1.701806         0.850098         0.494896
 C        -1.936751         1.705076         1.827376
 C        -0.571239         2.412985         1.587336
 O        -3.058440         2.218109         2.752395
 C        -2.337487         1.555089         3.841606
 C        -1.595995         0.686816         2.902133
 C        -0.214797         0.233171         2.481080
 H         0.896468        -0.076689        -0.242774
 H        -1.867840         1.366350        -0.451603
 H        -2.206464        -0.063394         0.510972
 H        -0.679677         3.171132         0.727524
 H         0.134679         2.886380         2.361602
 H        -1.597912         2.287124         4.363848
 H        -3.042352         1.061579         4.626233
 H        -2.222969        -0.214028         2.802998
 H         0.666736         0.680579         3.007844
 H        -0.010966        -0.806368         2.582181
