19
Iteration:  2857
 O         0.841951         0.646212         0.141330
 C        -0.188101         1.037829         1.066093
 C        -1.608503         0.931541         0.447164
 C        -2.015646         1.638935         1.900123
 C        -0.709718         2.446276         1.491561
 O        -3.042015         2.209888         2.743174
 C        -2.220997         1.638150         3.861138
 C        -1.626305         0.580742         2.964344
 C        -0.191523         0.319538         2.434075
 H         0.836489         1.181365        -0.728004
 H        -1.703151         1.617216        -0.449440
 H        -2.066044        -0.193774         0.189250
 H        -0.958330         3.086123         0.676629
 H        -0.155633         3.147114         2.115125
 H        -1.418561         2.369579         4.047155
 H        -2.871433         1.332114         4.612700
 H        -2.312256        -0.239265         2.862744
 H         0.662064         0.798652         2.961420
 H        -0.145125        -0.702724         2.397985
