19
Iteration:  1372
 O         0.742137         0.696603         0.104425
 C        -0.227904         0.999057         1.051963
 C        -1.715175         0.931372         0.526569
 C        -1.892282         1.600478         1.885478
 C        -0.577938         2.433688         1.605517
 O        -3.041110         2.209409         2.662996
 C        -2.331125         1.724575         3.784202
 C        -1.596408         0.635665         2.942789
 C        -0.150224         0.266251         2.365946
 H         1.567587         1.058335         0.488024
 H        -1.727826         1.500856        -0.423920
 H        -2.255493        -0.026984         0.387042
 H        -0.778697         3.252168         0.840012
 H        -0.058305         2.552227         2.508787
 H        -1.648707         2.485056         4.261820
 H        -2.900766         1.295424         4.687111
 H        -2.265489        -0.284745         2.894960
 H         0.785783         0.639352         2.827749
 H        -0.111066        -0.844643         2.096697
