19
Iteration:  2127
 O         0.793906         1.019522         0.166446
 C        -0.179969         1.070313         1.107970
 C        -1.707345         0.885367         0.519898
 C        -1.971591         1.590635         1.857066
 C        -0.700709         2.420050         1.518211
 O        -2.902286         2.262804         2.624910
 C        -2.205522         1.633270         3.877082
 C        -1.631791         0.486639         2.913628
 C        -0.243318         0.111204         2.417291
 H         0.634422         0.247604        -0.386009
 H        -1.828872         1.456787        -0.491725
 H        -2.253135        -0.172073         0.495936
 H        -0.828132         2.960612         0.560986
 H        -0.031022         2.945779         2.127925
 H        -1.372740         2.285847         4.411418
 H        -2.982784         1.429016         4.615766
 H        -2.347380        -0.350243         2.876990
 H         0.548640         0.478474         3.193185
 H        -0.179573        -0.937860         2.203803
