19
Iteration:  2938
 O         0.858451         0.741396         0.173269
 C        -0.237193         0.971869         0.997490
 C        -1.668483         0.853248         0.434456
 C        -2.025555         1.558317         1.850766
 C        -0.714870         2.436079         1.566587
 O        -3.027394         2.247520         2.728121
 C        -2.209476         1.711730         3.851671
 C        -1.564880         0.701134         2.919062
 C        -0.195954         0.249246         2.453274
 H         1.027270         1.452610        -0.489135
 H        -1.934155         1.504919        -0.458079
 H        -1.969479        -0.152732         0.070826
 H        -0.721527         3.110265         0.673788
 H        -0.256976         2.799318         2.501995
 H        -1.692462         2.527320         4.332608
 H        -2.738853         1.065651         4.567798
 H        -2.188740        -0.223079         2.846712
 H         0.622648         0.428023         3.084921
 H        -0.110967        -0.896854         2.372707
