19
Iteration:  4443
 O         0.864536         0.739036         0.253064
 C        -0.242259         0.978427         1.074728
 C        -1.795366         0.816427         0.491778
 C        -2.004164         1.632971         1.827740
 C        -0.721449         2.445659         1.514353
 O        -2.879907         2.328225         2.667795
 C        -2.287129         1.570031         3.862459
 C        -1.589878         0.566609         2.866556
 C        -0.123973         0.330982         2.410397
 H         0.771283         1.288617        -0.528185
 H        -1.781432         1.389916        -0.465979
 H        -2.374510        -0.041035         0.339575
 H        -0.887784         3.226207         0.633954
 H        -0.067023         3.004290         2.252568
 H        -1.783041         2.104995         4.590189
 H        -3.119657         1.206006         4.547090
 H        -2.143857        -0.363346         2.779319
 H         0.583274         0.961119         3.005277
 H         0.163052        -0.730512         2.342741
