19
Iteration:   278
 O         0.882152         0.652815         0.130506
 C        -0.197844         0.933432         0.991864
 C        -1.707700         1.107907         0.440637
 C        -1.968935         1.729309         1.913926
 C        -0.474007         2.329646         1.696594
 O        -2.964088         2.369002         2.650666
 C        -2.427118         1.564675         3.781328
 C        -1.650213         0.592054         2.838216
 C        -0.289909         0.163943         2.486201
 H         1.419774         1.494103         0.249346
 H        -1.693254         1.896732        -0.346993
 H        -2.362549         0.251752         0.289007
 H        -0.647235         3.116788         0.885956
 H         0.202511         2.579320         2.465167
 H        -1.798437         2.209324         4.376299
 H        -3.112141         0.978962         4.432387
 H        -2.335364        -0.291812         2.779757
 H         0.538807         0.487432         3.068544
 H        -0.373008        -0.906610         2.313778
