19
Iteration:  3249charge 0 multiplicity 1
 O         0.839506         0.828410         0.234969
 C        -0.208327         0.976258         1.130717
 C        -1.758115         0.893551         0.551063
 C        -1.977278         1.596251         1.804433
 C        -0.694281         2.416690         1.553238
 O        -2.918890         2.269788         2.645816
 C        -2.277655         1.682536         3.793413
 C        -1.520463         0.586870         2.923457
 C        -0.177371         0.156241         2.357103
 H         0.849915         1.438842        -0.457973
 H        -2.095600         1.222163        -0.468838
 H        -2.408739        -0.144238         0.520717
 H        -0.886249         3.028948         0.599365
 H        -0.413719         3.127597         2.405921
 H        -1.591492         2.465160         4.178874
 H        -2.980515         1.316201         4.533242
 H        -2.357370        -0.125835         3.152186
 H         0.697361         0.450514         2.869880
 H        -0.233249        -0.834402         2.019819
