19
Iteration:  1067
 O         0.825093         0.715319         0.081705
 C        -0.266454         1.011612         1.034905
 C        -1.737027         0.961518         0.465154
 C        -1.942815         1.688304         1.902451
 C        -0.675358         2.337689         1.637423
 O        -2.956364         2.315267         2.707367
 C        -2.338559         1.651686         3.810976
 C        -1.623959         0.575591         2.904553
 C        -0.130541         0.252481         2.345138
 H         1.580374         0.301727         0.521254
 H        -1.869409         1.623683        -0.392795
 H        -2.165632        -0.025149         0.263361
 H        -0.739319         3.180230         0.897702
 H         0.054962         2.698071         2.521128
 H        -1.726904         2.385696         4.378615
 H        -3.080591         1.248420         4.582992
 H        -2.278620        -0.343823         2.865162
 H         0.673786         0.764719         2.977024
 H         0.161491        -0.846894         2.347340
