19
Iteration:   879charge 0 multiplicity 1
 O         0.862760         0.809355         0.185782
 C        -0.285074         0.937792         1.033583
 C        -1.751116         0.905261         0.498016
 C        -1.879476         1.720176         1.870920
 C        -0.485902         2.322784         1.561778
 O        -2.987699         2.309433         2.706566
 C        -2.322215         1.641358         3.803264
 C        -1.675707         0.622850         2.907545
 C        -0.259309         0.151193         2.372855
 H         1.095073         1.753988        -0.116719
 H        -1.872781         1.542248        -0.357442
 H        -2.310322         0.006356         0.432928
 H        -0.463839         2.966795         0.815939
 H         0.228796         2.619324         2.321325
 H        -1.654355         2.260441         4.524702
 H        -3.097379         1.137453         4.427133
 H        -2.491127        -0.014957         2.661007
 H         0.697066         0.353830         2.874286
 H        -0.287750        -0.924173         2.366535
