19
Iteration:   148
 O         0.807952         0.713678         0.154486
 C        -0.261589         0.985855         1.084355
 C        -1.600526         1.078241         0.411937
 C        -1.919141         1.721246         1.802962
 C        -0.459683         2.426437         1.720471
 O        -2.994026         2.323620         2.660681
 C        -2.384975         1.573136         3.863148
 C        -1.699877         0.613232         2.823831
 C        -0.306719         0.110092         2.396757
 H         1.494001         0.144737         0.649918
 H        -1.424921         1.895178        -0.383038
 H        -2.211559         0.338832        -0.155081
 H        -0.307633         3.229910         0.916927
 H         0.003293         2.723195         2.632782
 H        -1.682789         2.208584         4.485401
 H        -3.136731         1.189471         4.609755
 H        -2.366468        -0.286320         2.693776
 H         0.650772         0.019545         2.961218
 H        -0.517439        -0.932833         2.101830
