19
Iteration:  1637charge 0 multiplicity 1
 O         0.814157         0.878889         0.218300
 C        -0.228165         1.022442         1.018012
 C        -1.749727         0.748507         0.445484
 C        -1.932836         1.684307         1.827180
 C        -0.671676         2.506913         1.537282
 O        -3.002767         2.231993         2.762072
 C        -2.173039         1.672421         3.829212
 C        -1.626545         0.601159         2.854403
 C        -0.199990         0.206629         2.380447
 H         1.152749        -0.061301         0.264352
 H        -2.123309         1.193079        -0.459841
 H        -2.236637        -0.190644         0.524566
 H        -0.644150         3.318841         0.838430
 H        -0.143268         2.831122         2.419725
 H        -1.383334         2.202561         4.202513
 H        -2.802853         1.308844         4.617574
 H        -2.388910        -0.129444         2.750193
 H         0.724901         0.510911         2.977197
 H        -0.216577        -0.836905         2.275969
