19
Iteration:  3027charge 0 multiplicity 1
 O         0.873933         0.759381         0.150178
 C        -0.247441         1.044011         1.026917
 C        -1.742643         0.807118         0.538891
 C        -1.969219         1.614000         1.851853
 C        -0.715141         2.422689         1.589172
 O        -2.939882         2.353525         2.624844
 C        -2.291970         1.591147         3.876308
 C        -1.595067         0.562225         2.889059
 C        -0.121471         0.318341         2.424998
 H         0.769130         1.260206        -0.659766
 H        -1.835216         1.091958        -0.592644
 H        -2.172463        -0.161621         0.679799
 H        -0.967132         3.257362         0.855115
 H        -0.115364         2.777795         2.473753
 H        -1.691534         2.289586         4.369221
 H        -3.070970         1.097937         4.527555
 H        -2.337039        -0.242451         2.918811
 H         0.692254         0.533402         3.114293
 H        -0.076858        -0.801997         2.347606
