19
Iteration:    62
 O         0.974794         0.744964         0.323869
 C        -0.204683         1.052163         1.086444
 C        -1.720949         1.079107         0.427719
 C        -1.945285         1.687958         1.832278
 C        -0.498598         2.329189         1.699092
 O        -2.900339         2.490332         2.625082
 C        -2.337931         1.529435         3.882851
 C        -1.754152         0.538510         2.788042
 C        -0.401579         0.058574         2.311787
 H         0.777234         0.416664        -0.521648
 H        -1.816928         1.718238        -0.492570
 H        -2.335411         0.197055         0.142094
 H        -0.448182         3.323887         1.037859
 H        -0.029277         2.568680         2.639139
 H        -1.568108         2.156187         4.365172
 H        -3.139541         0.971583         4.420959
 H        -2.405897        -0.354509         2.827403
 H         0.546028         0.107404         2.997595
 H        -0.466228        -0.937708         1.870538
