19
Iteration:  3952charge 0 multiplicity 1
 O         0.913264         0.718116         0.255893
 C        -0.258106         0.994694         1.102826
 C        -1.779068         0.948886         0.490702
 C        -1.953046         1.644653         1.802373
 C        -0.635489         2.423073         1.447247
 O        -3.022861         2.149109         2.666809
 C        -2.235936         1.604371         3.912145
 C        -1.569593         0.691310         2.904525
 C        -0.203979         0.287183         2.449973
 H         0.687647         1.131368        -0.659064
 H        -1.872006         1.512175        -0.508580
 H        -2.319271        -0.007119         0.213467
 H        -0.958118         3.033483         0.617393
 H         0.096388         2.988958         2.151408
 H        -1.510288         2.619763         4.212141
 H        -2.922995         1.406002         4.726291
 H        -2.215380        -0.230696         2.721436
 H         0.672227         0.604687         2.999876
 H        -0.339364        -0.852648         2.256751
