19
Iteration:  3463charge 0 multiplicity 1
 O         0.873913         0.746581         0.197920
 C        -0.248680         1.006934         1.031755
 C        -1.713982         0.833824         0.477114
 C        -1.940640         1.666819         1.842640
 C        -0.684018         2.442543         1.588799
 O        -2.971654         2.282769         2.723971
 C        -2.319588         1.625588         3.820523
 C        -1.612795         0.598974         2.898398
 C        -0.133895         0.263301         2.401240
 H         0.502982         1.019983        -0.666902
 H        -2.027277         1.244227        -0.526806
 H        -2.197909        -0.088111         0.417617
 H        -0.676032         3.065509         0.751988
 H        -0.022664         2.770166         2.410939
 H        -1.610225         2.290087         4.225182
 H        -3.034813         1.380935         4.664373
 H        -2.234074        -0.260586         2.723792
 H         0.587971         0.893268         2.991277
 H         0.061700        -0.821818         2.340246
