19
Iteration:  4440
 O         0.880546         0.745318         0.257631
 C        -0.249523         0.954079         1.054410
 C        -1.817613         0.832198         0.514890
 C        -1.988609         1.639540         1.802772
 C        -0.738186         2.434243         1.546298
 O        -2.880586         2.313972         2.677799
 C        -2.289049         1.574861         3.873903
 C        -1.580471         0.583411         2.851825
 C        -0.138892         0.333363         2.421426
 H         0.881431         1.288948        -0.519700
 H        -1.815567         1.376604        -0.516737
 H        -2.398418        -0.124834         0.151469
 H        -0.863711         3.214966         0.576568
 H        -0.035632         2.971613         2.176949
 H        -1.698220         2.140948         4.622895
 H        -3.054206         1.232771         4.494262
 H        -2.223088        -0.352041         2.740710
 H         0.525895         1.062880         2.927194
 H         0.252797        -0.765242         2.402966
