19
Iteration:  3477
 O         0.826636         0.729697         0.173474
 C        -0.241820         0.977859         1.026387
 C        -1.706747         0.854744         0.520071
 C        -2.019874         1.616227         1.809272
 C        -0.578564         2.468568         1.549142
 O        -3.004558         2.249273         2.685430
 C        -2.252898         1.633644         3.914480
 C        -1.598558         0.653296         2.853462
 C        -0.209367         0.302287         2.422060
 H         0.773545         0.962692        -0.738987
 H        -1.638738         1.596988        -0.323452
 H        -1.990499        -0.203997         0.340180
 H        -0.813064         3.322798         0.848834
 H        -0.125591         2.942104         2.428563
 H        -1.751454         2.393307         4.473726
 H        -2.991243         0.965667         4.348256
 H        -2.251821        -0.241973         2.934045
 H         0.708048         0.622964         3.080645
 H         0.157823        -0.885155         2.529758
