19
Iteration:  4779
 O         0.779477         0.783726         0.159325
 C        -0.245508         0.951292         1.044542
 C        -1.680898         0.854593         0.540435
 C        -1.920536         1.649920         1.849560
 C        -0.695696         2.426013         1.543735
 O        -2.988009         2.195365         2.649273
 C        -2.289968         1.673860         3.850681
 C        -1.610879         0.620253         2.893309
 C        -0.115421         0.245774         2.479513
 H         0.582067         1.282613        -0.675249
 H        -1.690444         1.415164        -0.423478
 H        -2.096181        -0.095355         0.689763
 H        -0.910710         3.237154         0.680093
 H        -0.083039         3.128936         2.301268
 H        -1.468919         2.411036         4.088249
 H        -2.971456         1.396931         4.558076
 H        -2.280388        -0.256483         2.812298
 H         0.683383         0.742798         3.009864
 H         0.215617        -0.777404         2.405350
