19
Iteration:   239
 O         0.840870         0.665190         0.232063
 C        -0.218117         1.045819         1.121365
 C        -1.677859         1.052820         0.505617
 C        -1.907127         1.717866         1.805869
 C        -0.458389         2.395453         1.753438
 O        -3.013764         2.292965         2.618682
 C        -2.269934         1.592669         3.732342
 C        -1.710949         0.602695         2.814197
 C        -0.344563         0.117201         2.386905
 H         0.958438         1.330023        -0.426155
 H        -1.763390         1.725310        -0.371674
 H        -2.069542         0.007358         0.446906
 H        -0.591065         3.265275         1.085312
 H         0.262835         2.756729         2.534695
 H        -1.689703         2.371586         4.320533
 H        -3.033443         1.245000         4.410575
 H        -2.381689        -0.226547         2.672419
 H         0.598451         0.020058         3.048933
 H        -0.542623        -0.902283         2.033300
