19
Iteration:  1121
 O         0.855585         0.847909         0.172092
 C        -0.231500         0.942919         1.072101
 C        -1.834626         0.860089         0.547922
 C        -1.947745         1.715620         1.847849
 C        -0.536983         2.430278         1.566616
 O        -3.021711         2.269711         2.665352
 C        -2.322835         1.661235         3.848229
 C        -1.595461         0.646764         2.864487
 C        -0.102204         0.143133         2.381953
 H         0.854283         0.220151        -0.529140
 H        -2.013501         1.389193        -0.383528
 H        -2.365305        -0.092350         0.497804
 H        -0.593186         3.223838         0.785301
 H         0.064440         2.676507         2.506304
 H        -1.674548         2.323621         4.294509
 H        -3.082614         1.326370         4.590823
 H        -2.262596        -0.221752         2.911369
 H         0.742116         0.630037         2.847940
 H        -0.213951        -0.930964         2.332318
