19
Iteration:  2302charge 0 multiplicity 1
 O         0.900778         0.733203         0.183688
 C        -0.252513         1.026390         1.033094
 C        -1.732841         0.941543         0.467214
 C        -2.005769         1.668788         1.836521
 C        -0.630847         2.342258         1.570451
 O        -3.004984         2.179388         2.771417
 C        -2.253260         1.648128         3.885816
 C        -1.646186         0.599880         2.861895
 C        -0.204425         0.304100         2.326090
 H         1.078095         1.574499        -0.323773
 H        -1.815239         1.587087        -0.403939
 H        -2.160133        -0.094545         0.369578
 H        -0.651886         3.135013         0.809602
 H         0.064241         2.499914         2.369988
 H        -1.560994         2.497391         4.088204
 H        -2.837736         1.313010         4.734411
 H        -2.385893        -0.212302         2.900270
 H         0.657673         0.655327         2.979464
 H        -0.075001        -0.717841         2.226685
