19
Iteration:  4622charge 0 multiplicity 1
 O         0.747828         0.652305         0.181546
 C        -0.169871         1.073276         1.067100
 C        -1.646257         0.944892         0.546797
 C        -2.019098         1.640712         1.824746
 C        -0.554224         2.464207         1.546803
 O        -3.178575         2.133592         2.704162
 C        -2.215178         1.634737         3.782224
 C        -1.538839         0.658691         2.946339
 C        -0.135287         0.304386         2.397959
 H         0.637299         1.097337        -0.736592
 H        -1.761205         1.481542        -0.356860
 H        -2.111189        -0.049669         0.212553
 H        -0.641686         3.261040         0.805077
 H         0.037527         2.885556         2.550612
 H        -1.655494         2.540399         4.232684
 H        -2.943244         1.136039         4.566047
 H        -2.164801        -0.218119         2.866418
 H         0.758850         0.631752         2.933823
 H         0.012848        -0.779110         2.218642
