19
Iteration:  3137charge 0 multiplicity 1
 O         0.936241         0.789356         0.055772
 C        -0.286311         0.957642         1.058180
 C        -1.774186         0.826022         0.463835
 C        -1.975930         1.711632         1.806783
 C        -0.593208         2.413551         1.576225
 O        -3.012272         2.217312         2.706108
 C        -2.279187         1.601077         3.879906
 C        -1.627567         0.663649         2.933276
 C        -0.120258         0.275043         2.539458
 H         0.529627         1.206401        -0.759138
 H        -1.968369         1.301519        -0.609362
 H        -2.299188        -0.118107         0.510963
 H        -0.591778         3.089712         0.755244
 H        -0.064272         2.924978         2.386878
 H        -1.649430         2.177842         4.499732
 H        -3.242328         1.375671         4.365524
 H        -2.175652        -0.228002         2.732510
 H         0.557554         0.774887         3.083136
 H        -0.054795        -0.777927         2.556361
