19
Iteration:  3429charge 0 multiplicity 1
 O         0.884696         0.770472         0.259709
 C        -0.268727         1.029914         1.070138
 C        -1.767738         0.849287         0.405170
 C        -1.935221         1.674903         1.850005
 C        -0.650636         2.413504         1.495645
 O        -2.989105         2.197338         2.696660
 C        -2.239514         1.695476         3.854630
 C        -1.552801         0.621940         2.943716
 C        -0.240376         0.166242         2.378802
 H         0.767754         1.490034        -0.465582
 H        -2.088930         1.591109        -0.344138
 H        -2.225450        -0.127617         0.525704
 H        -0.715915         3.017929         0.623998
 H        -0.076477         2.933254         2.281011
 H        -1.685282         2.530919         4.217241
 H        -2.903488         1.251019         4.631520
 H        -2.305927        -0.135889         2.816018
 H         0.643718         0.617185         2.863529
 H         0.062387        -0.855736         2.378250
