19
Iteration:  2907
 O         0.873237         0.900594         0.264083
 C        -0.303308         0.991471         1.024514
 C        -1.841711         0.798160         0.641256
 C        -1.902425         1.592046         1.860747
 C        -0.586383         2.404432         1.496431
 O        -3.015025         2.269953         2.613419
 C        -2.223025         1.709527         3.817591
 C        -1.610161         0.578346         2.914208
 C        -0.152754         0.152373         2.357303
 H         0.957374         1.563617        -0.428612
 H        -2.223940         1.261207        -0.229839
 H        -2.129395        -0.161154         0.676573
 H        -0.736030         3.119918         0.637560
 H         0.147169         2.920596         2.154100
 H        -1.509681         2.475179         4.008725
 H        -2.985752         1.312223         4.579298
 H        -2.433775        -0.206962         2.873260
 H         0.631507         0.471178         3.067732
 H        -0.071777        -0.981658         2.082872
