19
Iteration:   906
 O         0.897204         0.608082         0.239773
 C        -0.211731         1.023040         1.091809
 C        -1.886737         1.060713         0.465163
 C        -1.928844         1.636211         1.833524
 C        -0.654854         2.430026         1.609025
 O        -2.883240         2.323899         2.673029
 C        -2.300875         1.594032         3.788959
 C        -1.632911         0.503659         2.873265
 C        -0.172084         0.242129         2.397366
 H         0.967425         1.249679        -0.535982
 H        -1.881150         1.893091        -0.284512
 H        -2.606147         0.264924         0.118192
 H        -0.707974         3.289336         0.713236
 H        -0.150028         2.834439         2.504449
 H        -1.592277         2.071784         4.442681
 H        -3.130317         1.265607         4.421413
 H        -2.392727        -0.308481         2.702756
 H         0.587927         0.707389         3.048611
 H         0.083752        -0.846138         2.361329
