19
Iteration:  2488
 O         0.840256         0.744822         0.170695
 C        -0.231097         1.016939         1.024065
 C        -1.876999         0.864240         0.517797
 C        -1.934138         1.689127         1.806942
 C        -0.604476         2.429715         1.725701
 O        -2.919869         2.243389         2.626492
 C        -2.260000         1.612158         3.795994
 C        -1.620087         0.613950         2.864139
 C        -0.117756         0.277640         2.404179
 H         0.547701         1.046404        -0.702693
 H        -2.115763         1.278907        -0.401941
 H        -2.445152        -0.043062         0.710230
 H        -0.724490         3.317907         1.060873
 H        -0.097478         2.482516         2.749813
 H        -1.681584         2.385540         4.232390
 H        -2.970224         1.186921         4.494057
 H        -2.222147        -0.267544         2.704273
 H         0.607753         0.768830         3.128790
 H         0.055522        -0.793666         2.401788
