19
Iteration:  3920charge 0 multiplicity 1
 O         0.903035         0.745344         0.227429
 C        -0.245908         1.009223         1.048912
 C        -1.769346         0.802859         0.537313
 C        -1.965471         1.612265         1.817874
 C        -0.720432         2.389684         1.601731
 O        -2.968421         2.276232         2.678065
 C        -2.256437         1.700288         3.855783
 C        -1.589213         0.606869         2.841022
 C        -0.182264         0.273825         2.350442
 H         0.928335         1.486967        -0.318417
 H        -1.829924         1.287901        -0.506671
 H        -2.095078        -0.223552         0.679215
 H        -0.932147         3.050195         0.828589
 H        -0.172722         2.854612         2.463454
 H        -1.448476         2.554525         4.063906
 H        -2.925869         1.530776         4.668881
 H        -2.389607        -0.155510         2.650785
 H         0.700748         0.651514         2.930508
 H        -0.099850        -0.908323         2.219818
