19
Iteration:  1287charge 0 multiplicity 1
 O         0.890634         0.663590         0.166506
 C        -0.301839         1.009006         1.006723
 C        -1.799914         0.945624         0.482990
 C        -1.954840         1.624080         1.882436
 C        -0.707220         2.471720         1.465245
 O        -2.934652         2.192492         2.726675
 C        -2.287040         1.664355         3.855424
 C        -1.562683         0.643732         2.887759
 C        -0.209098         0.271388         2.434593
 H         1.704462         0.999600         0.658900
 H        -1.951082         1.705061        -0.313853
 H        -2.157055        -0.085341         0.251081
 H        -0.668955         3.196220         0.507483
 H        -0.100500         3.088525         2.152562
 H        -1.657148         2.491170         4.344391
 H        -2.989133         1.159825         4.702489
 H        -2.242213        -0.264119         2.842096
 H         0.761619         0.522678         2.941277
 H        -0.188852        -0.856604         2.240793
