19
Iteration:  1109charge 0 multiplicity 1
 O         0.728012         0.931670         0.115439
 C        -0.260501         0.939579         1.055416
 C        -1.717901         0.880481         0.643568
 C        -1.882693         1.735052         1.820391
 C        -0.478490         2.382102         1.546694
 O        -3.012452         2.216692         2.664410
 C        -2.334066         1.663475         3.813123
 C        -1.602763         0.625697         2.867349
 C        -0.204688         0.163835         2.440883
 H         0.768931        -0.065676        -0.141260
 H        -1.713053         1.373881        -0.306869
 H        -2.225705        -0.064882         0.689022
 H        -0.336638         2.986651         0.691947
 H         0.124285         2.859987         2.390020
 H        -1.704259         2.342186         4.258651
 H        -3.059722         1.259829         4.509298
 H        -2.280953        -0.134380         2.542374
 H         0.622393         0.477181         3.046958
 H         0.062449        -0.861144         2.393426
