19
Iteration:  1347charge 0 multiplicity 1
 O         0.738136         0.875508        -0.010775
 C        -0.196152         0.937799         1.076048
 C        -1.758379         0.965025         0.522876
 C        -1.915879         1.642998         1.849639
 C        -0.589673         2.389382         1.553039
 O        -2.997631         2.182235         2.569616
 C        -2.213900         1.726801         3.874319
 C        -1.656866         0.619783         2.894321
 C        -0.204150         0.100158         2.645703
 H         1.546742         1.358315         0.374105
 H        -1.773622         1.427787        -0.474080
 H        -2.257670        -0.002950         0.433227
 H        -0.621847         2.845595         0.624803
 H        -0.064446         2.789472         2.425213
 H        -1.654936         2.538503         4.192162
 H        -2.703140         1.333427         4.646684
 H        -2.403433        -0.165159         2.884586
 H         0.616673         0.562696         3.149569
 H        -0.180330        -0.977003         2.602410
