19
Iteration:   699charge 0 multiplicity 1
 O         0.811335         0.656398         0.168061
 C        -0.183327         1.034516         1.083941
 C        -1.653907         0.990632         0.480758
 C        -1.864877         1.642510         1.819019
 C        -0.713710         2.610852         1.629106
 O        -2.950835         2.211212         2.673324
 C        -2.260347         1.670301         3.833752
 C        -1.662518         0.644516         2.871170
 C        -0.317757         0.088712         2.346524
 H         1.658395         0.609651         0.569815
 H        -1.816014         1.531875        -0.509674
 H        -1.982137        -0.088821         0.372236
 H        -0.824029         3.305278         0.850534
 H        -0.273545         3.051104         2.513587
 H        -1.486779         2.368434         4.318946
 H        -2.959625         1.331816         4.659028
 H        -2.447810        -0.167481         2.838896
 H         0.591169         0.208182         2.993641
 H        -0.413199        -0.997246         1.957301
