19
Iteration:    69charge 0 multiplicity 1
 O         1.006508         0.742013         0.299799
 C        -0.208928         0.971231         1.089204
 C        -1.747977         1.076536         0.421414
 C        -1.956434         1.739414         1.751268
 C        -0.558501         2.405289         1.693383
 O        -2.877686         2.478649         2.665052
 C        -2.364435         1.519808         3.861047
 C        -1.747356         0.554138         2.818905
 C        -0.322593         0.017092         2.356599
 H         0.611551         0.648716        -0.595720
 H        -1.570214         1.780119        -0.407370
 H        -2.338910         0.161986         0.235939
 H        -0.504206         3.209762         1.075024
 H        -0.057626         2.534813         2.686848
 H        -1.649729         2.105747         4.473732
 H        -3.207676         1.236627         4.511573
 H        -2.423321        -0.307095         2.541836
 H         0.450118        -0.057778         3.035243
 H        -0.546339        -1.015275         1.910732
