19
Iteration:   566
 O         0.801550         0.768112         0.273998
 C        -0.220278         0.944771         1.095156
 C        -1.804485         0.973885         0.428435
 C        -1.893419         1.786580         1.797983
 C        -0.487963         2.363040         1.500905
 O        -2.983377         2.293515         2.685711
 C        -2.251947         1.588620         3.828738
 C        -1.721988         0.592414         2.824811
 C        -0.229932         0.103854         2.481516
 H         1.533017         1.320112         0.304291
 H        -1.685021         1.490398        -0.592110
 H        -2.607300         0.133266         0.363173
 H        -0.666229         3.175959         0.632962
 H         0.100978         2.864855         2.364568
 H        -1.479898         2.331497         4.221854
 H        -3.053285         1.386483         4.582869
 H        -2.398515        -0.278072         2.585531
 H         0.556990         0.518716         3.209209
 H        -0.135721        -0.951206         2.285537
