19
Iteration:  1432
 O         0.754189         0.850662         0.142201
 C        -0.265419         0.975382         1.035388
 C        -1.809415         0.853284         0.482068
 C        -1.887707         1.655350         1.842047
 C        -0.558881         2.412276         1.479689
 O        -2.950627         2.292978         2.639491
 C        -2.263474         1.589291         3.874757
 C        -1.648371         0.624315         2.885942
 C        -0.186507         0.233293         2.488545
 H         1.508952         0.430662         0.493821
 H        -2.014432         1.381310        -0.446197
 H        -2.197068        -0.156352         0.548938
 H        -0.727484         3.165572         0.786443
 H         0.074197         2.665024         2.408474
 H        -1.477847         2.229821         4.447219
 H        -2.936846         1.012586         4.536622
 H        -2.364116        -0.129041         2.625494
 H         0.460432         0.927636         3.071090
 H         0.187479        -0.718201         2.751978
