19
Iteration:   661charge 0 multiplicity 1
 O         0.791712         0.832209         0.204357
 C        -0.242204         0.932008         1.049682
 C        -1.772260         0.939793         0.451304
 C        -1.923434         1.652259         1.746597
 C        -0.443671         2.319268         1.577868
 O        -2.930491         2.298764         2.708929
 C        -2.303938         1.668213         3.817350
 C        -1.746181         0.569883         2.869623
 C        -0.248240         0.176817         2.430357
 H         1.553243         1.186134         0.680578
 H        -1.957482         1.631630        -0.348621
 H        -2.300895         0.005492         0.346832
 H        -0.555017         3.096246         0.762974
 H         0.188630         2.762906         2.390991
 H        -1.504966         2.235763         4.244721
 H        -3.039790         1.415561         4.549167
 H        -2.503749        -0.200257         2.708636
 H         0.486272         0.751998         3.051367
 H        -0.051420        -0.863121         2.484045
