19
Iteration:   896charge 0 multiplicity 1
 O         0.880261         0.702677         0.242316
 C        -0.248534         0.968573         1.012589
 C        -1.884722         1.064928         0.471583
 C        -1.952709         1.670246         1.835534
 C        -0.557269         2.359052         1.572610
 O        -2.864110         2.311770         2.600114
 C        -2.344366         1.578873         3.928633
 C        -1.607115         0.584038         2.846648
 C        -0.226481         0.163926         2.439424
 H         1.034601         1.515514        -0.365557
 H        -1.913080         1.810950        -0.383764
 H        -2.456291         0.080675         0.353650
 H        -0.781230         3.322463         0.735342
 H         0.025363         2.788306         2.485218
 H        -1.664964         2.271708         4.330721
 H        -3.137687         1.218428         4.563325
 H        -2.156611        -0.409616         2.857947
 H         0.473374         0.637294         3.143525
 H         0.115434        -0.929411         2.317907
