19
Iteration:  3925charge 0 multiplicity 1
 O         0.904542         0.734873         0.240829
 C        -0.252688         1.016685         1.062689
 C        -1.734454         0.827607         0.542653
 C        -1.991274         1.626792         1.812995
 C        -0.693334         2.418348         1.570190
 O        -2.976021         2.248704         2.712777
 C        -2.248179         1.722459         3.826342
 C        -1.635189         0.612889         2.853465
 C        -0.154776         0.214207         2.348555
 H         0.967341         1.504402        -0.444911
 H        -2.076186         1.306617        -0.359535
 H        -2.033667        -0.249932         0.515672
 H        -0.903157         3.113648         0.662890
 H        -0.096692         2.878080         2.331223
 H        -1.520758         2.391499         4.091152
 H        -3.006993         1.551121         4.644203
 H        -2.326290        -0.217753         2.778615
 H         0.626944         0.733990         2.919490
 H        -0.026916        -0.803407         2.208779
