19
Iteration:   537
 O         0.928066         0.750705         0.174051
 C        -0.212403         0.991282         1.039856
 C        -1.680149         0.864605         0.480079
 C        -1.965745         1.680393         1.830451
 C        -0.661632         2.343430         1.621409
 O        -2.917052         2.423688         2.692280
 C        -2.312350         1.703770         3.864692
 C        -1.710232         0.565935         2.875832
 C        -0.280874         0.100119         2.306369
 H         1.680601         1.387289         0.125048
 H        -1.700339         1.354762        -0.477293
 H        -2.233358        -0.040601         0.432785
 H        -0.802415         3.164124         1.012716
 H        -0.253279         2.692108         2.655136
 H        -1.674317         2.360005         4.450397
 H        -3.144878         1.490785         4.565996
 H        -2.424040        -0.259804         2.954397
 H         0.534216         0.276552         2.956270
 H        -0.335656        -0.988318         2.036046
