19
Iteration:  1509charge 0 multiplicity 1
 O         0.920759         0.878026         0.206083
 C        -0.256841         0.968934         1.080209
 C        -1.911912         0.850481         0.490647
 C        -2.000753         1.689236         1.831198
 C        -0.597197         2.389376         1.586923
 O        -3.057914         2.239290         2.667211
 C        -2.189965         1.717684         3.818560
 C        -1.584245         0.586668         2.795343
 C        -0.117414         0.198892         2.414703
 H         1.085195        -0.064058         0.246757
 H        -2.110332         1.477538        -0.392899
 H        -2.608424         0.010922         0.394181
 H        -0.696920         2.960593         0.722482
 H        -0.014283         2.811420         2.421374
 H        -1.324059         2.426271         4.202534
 H        -2.758075         1.382783         4.702242
 H        -2.263811        -0.253480         2.884473
 H         0.610393         0.644882         3.109244
 H         0.111957        -0.862065         2.323750
