19
Iteration:  1701
 O         0.786724         0.885089         0.147549
 C        -0.224766         0.971079         1.075151
 C        -1.691999         0.869857         0.490217
 C        -1.941397         1.637147         1.853126
 C        -0.642230         2.388290         1.618832
 O        -3.041047         2.228173         2.626566
 C        -2.191961         1.644608         3.861830
 C        -1.606147         0.628682         2.915973
 C        -0.171474         0.259880         2.353661
 H         0.859391        -0.042564        -0.227832
 H        -1.978872         1.412600        -0.340287
 H        -2.176068        -0.088094         0.459047
 H        -0.747493         3.262350         0.918466
 H        -0.057444         2.726820         2.502955
 H        -1.566645         2.402691         4.406034
 H        -3.021128         1.268954         4.468328
 H        -2.223657        -0.255749         2.909251
 H         0.626902         0.701464         2.973210
 H        -0.067935        -0.768744         2.317481
