19
Iteration:  4785charge 0 multiplicity 1
 O         0.784728         0.840052         0.184635
 C        -0.244757         0.954311         1.047058
 C        -1.704029         0.839097         0.569077
 C        -1.885151         1.707392         1.825589
 C        -0.675629         2.412492         1.500862
 O        -2.981588         2.201985         2.627724
 C        -2.269290         1.616053         3.866958
 C        -1.599956         0.628192         2.902246
 C        -0.143187         0.258885         2.475580
 H         0.482818         1.139924        -0.643743
 H        -1.871474         1.203276        -0.460625
 H        -2.325088        -0.126433         0.674717
 H        -0.728103         2.980901         0.637528
 H        -0.110796         2.979264         2.181991
 H        -1.523340         2.381584         4.122472
 H        -2.954856         1.200023         4.732245
 H        -2.347582        -0.141768         2.654687
 H         0.644222         0.777904         3.076164
 H         0.089060        -0.845489         2.582758
