19
Iteration:   385charge 0 multiplicity 1
 O         0.829836         0.811067         0.187617
 C        -0.185999         1.042347         1.117993
 C        -1.767151         1.036004         0.437029
 C        -1.896040         1.702458         1.806080
 C        -0.542350         2.387992         1.722772
 O        -2.906199         2.235450         2.610748
 C        -2.339803         1.695951         3.783789
 C        -1.645198         0.598971         2.869073
 C        -0.326403         0.070652         2.431611
 H         0.769157        -0.178063        -0.074693
 H        -1.540190         1.622272        -0.461992
 H        -2.290428         0.129097         0.169931
 H        -0.628813         3.293067         1.087430
 H         0.083840         2.752337         2.653852
 H        -1.570157         2.312137         4.272922
 H        -3.112001         1.398145         4.550950
 H        -2.387960        -0.202641         2.705636
 H         0.646011         0.018513         2.953899
 H        -0.371130        -1.072336         2.149051
