19
Iteration:   188charge 0 multiplicity 1
 O         0.951797         0.869138         0.355826
 C        -0.283774         0.893310         1.052035
 C        -1.773119         1.023931         0.430190
 C        -1.917598         1.740943         1.799081
 C        -0.569024         2.359130         1.627969
 O        -2.873374         2.421827         2.640194
 C        -2.293522         1.497895         3.791987
 C        -1.717967         0.576164         2.856871
 C        -0.347483         0.073814         2.380395
 H         0.962616         0.293110        -0.392087
 H        -1.714779         1.866927        -0.209475
 H        -2.381289         0.157064         0.286456
 H        -0.421268         3.122796         0.941925
 H         0.010189         2.552331         2.611275
 H        -1.578143         2.194177         4.175241
 H        -3.048824         1.352755         4.560299
 H        -2.378285        -0.247396         2.544930
 H         0.482731         0.335680         2.972945
 H        -0.413811        -1.035843         2.116578
