19
Iteration:  1378
 O         0.762352         0.652866         0.128054
 C        -0.256322         1.019051         1.032924
 C        -1.692837         0.917462         0.528166
 C        -1.941955         1.657657         1.863128
 C        -0.625543         2.417374         1.636585
 O        -2.986339         2.193446         2.636302
 C        -2.315843         1.723928         3.887943
 C        -1.630801         0.620777         2.906084
 C        -0.137329         0.301769         2.285284
 H         1.585801         0.930874         0.481621
 H        -1.755957         1.460088        -0.410917
 H        -2.118732        -0.083947         0.496417
 H        -0.671240         3.181592         0.927244
 H        -0.086652         2.885914         2.596312
 H        -1.820782         2.588589         4.329206
 H        -2.861503         1.183782         4.629123
 H        -2.213759        -0.253055         2.857329
 H         0.762461         0.623979         2.807279
 H        -0.097192        -0.740701         2.169639
