19
Iteration:  4956
 O         0.819529         0.863620         0.175436
 C        -0.239570         0.964013         1.062293
 C        -1.841597         0.898238         0.545928
 C        -1.938547         1.674017         1.821581
 C        -0.617637         2.420399         1.457951
 O        -3.078761         2.135888         2.713325
 C        -2.201061         1.656315         3.782508
 C        -1.547144         0.566345         2.864789
 C        -0.095442         0.313111         2.547109
 H         0.744216        -0.067109        -0.169148
 H        -1.856086         1.467666        -0.447475
 H        -2.455568        -0.006107         0.373312
 H        -0.661074         2.952787         0.354133
 H         0.056268         2.870196         2.295077
 H        -1.610582         2.481966         4.134022
 H        -2.842514         1.452320         4.557276
 H        -2.344866        -0.177202         2.719360
 H         0.456421         1.003658         3.228753
 H         0.370137        -0.659736         2.553833
