19
Iteration:   263charge 0 multiplicity 1
 O         0.805169         0.671928         0.198431
 C        -0.271621         0.932868         1.111159
 C        -1.740587         1.126377         0.483328
 C        -1.810640         1.753571         1.802016
 C        -0.469863         2.381168         1.647596
 O        -2.998429         2.263674         2.635539
 C        -2.405734         1.614910         3.816273
 C        -1.736087         0.588656         2.852198
 C        -0.192742         0.080439         2.384451
 H         1.353045         1.494242         0.000838
 H        -1.562817         1.866927        -0.297939
 H        -2.322561         0.248137         0.163004
 H        -0.248532         3.179036         1.031360
 H         0.014003         2.715677         2.672165
 H        -1.635887         2.208759         4.373620
 H        -3.255520         1.463552         4.491958
 H        -2.460411        -0.122943         2.437514
 H         0.642472         0.511363         3.028159
 H         0.028390        -1.059734         2.391076
