19
Iteration:   788
 O         0.797467         0.701017         0.148697
 C        -0.239083         1.009063         1.080621
 C        -1.686183         0.956143         0.559141
 C        -1.945335         1.747948         1.863146
 C        -0.550357         2.495497         1.542515
 O        -2.939727         2.262676         2.694802
 C        -2.334187         1.587806         3.829705
 C        -1.683293         0.660920         2.790710
 C        -0.253783         0.128847         2.404960
 H         1.613751         1.112453         0.418188
 H        -1.725690         1.344863        -0.499850
 H        -2.175515        -0.058838         0.602892
 H        -0.611053         3.144023         0.797315
 H         0.138152         2.935989         2.332401
 H        -1.594923         2.159737         4.511535
 H        -3.102268         1.120666         4.509984
 H        -2.439592        -0.154620         2.634255
 H         0.652945         0.184037         3.038763
 H        -0.239248        -1.018912         2.107491
