19
Iteration:   690
 O         0.860249         0.662714         0.127545
 C        -0.211595         0.989574         1.075635
 C        -1.612444         0.919682         0.450515
 C        -2.018913         1.714313         1.747131
 C        -0.731412         2.558484         1.680712
 O        -2.940639         2.282301         2.676653
 C        -2.206964         1.641147         3.851765
 C        -1.669079         0.618708         2.915674
 C        -0.280234         0.118447         2.346952
 H         1.638556         0.768754         0.630746
 H        -1.789847         1.684956        -0.320867
 H        -2.085875        -0.041786         0.265113
 H        -0.769158         3.230187         0.908432
 H        -0.348606         3.093090         2.746447
 H        -1.462578         2.373642         4.344189
 H        -3.065913         1.355838         4.515644
 H        -2.341703        -0.236850         2.815543
 H         0.588815         0.169758         2.957463
 H        -0.371413        -1.023439         2.242882
