19
Iteration:  4391
 O         0.805830         0.719399         0.221707
 C        -0.218513         1.026690         1.073483
 C        -1.684052         0.905406         0.575775
 C        -1.935068         1.659604         1.840431
 C        -0.696104         2.482452         1.534954
 O        -3.023836         2.132351         2.653293
 C        -2.235114         1.750723         3.809043
 C        -1.556685         0.651028         2.902468
 C        -0.178702         0.136943         2.356901
 H         0.982252         1.464894        -0.408939
 H        -2.022015         1.340058        -0.332785
 H        -2.065027        -0.100944         0.480584
 H        -0.842785         3.068029         0.763962
 H        -0.320506         3.037844         2.442899
 H        -1.566391         2.651142         4.149502
 H        -2.861583         1.339919         4.718679
 H        -2.320366        -0.096723         2.844920
 H         0.703312         0.391443         2.946608
 H        -0.208008        -0.866602         2.082296
