19
Iteration:  4157charge 0 multiplicity 1
 O         0.875412         0.638127         0.161870
 C        -0.246649         1.001136         1.073385
 C        -1.695746         0.852768         0.569948
 C        -1.965239         1.678441         1.810353
 C        -0.688499         2.432589         1.494224
 O        -3.000360         2.261436         2.710479
 C        -2.244140         1.595525         3.866256
 C        -1.602992         0.654154         2.880109
 C        -0.176610         0.345678         2.431714
 H         1.007529         1.389231        -0.434206
 H        -1.872245         1.452895        -0.369750
 H        -2.252887        -0.076886         0.312553
 H        -0.969438         3.129596         0.680254
 H        -0.197352         2.991175         2.246794
 H        -1.641102         2.389322         4.313305
 H        -3.164717         1.040639         4.366124
 H        -2.119833        -0.337446         2.867882
 H         0.614888         0.886985         3.042678
 H        -0.025180        -0.769146         2.311718
