19
Iteration:    60charge 0 multiplicity 1
 O         0.961063         0.750041         0.336537
 C        -0.201576         1.060665         1.077573
 C        -1.712089         1.081789         0.425607
 C        -1.942048         1.679666         1.862574
 C        -0.482739         2.319933         1.701620
 O        -2.904204         2.480126         2.619290
 C        -2.327633         1.534865         3.870181
 C        -1.758386         0.539330         2.782414
 C        -0.413131         0.078337         2.298091
 H         0.814510         0.324492        -0.542525
 H        -1.869397         1.724356        -0.481492
 H        -2.305559         0.173293         0.137775
 H        -0.459483         3.224716         1.077424
 H         0.010263         2.595895         2.648971
 H        -1.573296         2.172992         4.380253
 H        -3.109977         0.962439         4.405480
 H        -2.466308        -0.338407         2.875986
 H         0.478622         0.161949         2.922187
 H        -0.431138        -0.987000         1.874340
