19
Iteration:  4508charge 0 multiplicity 1
 O         0.818419         0.729478         0.241831
 C        -0.288377         0.999738         1.041911
 C        -1.779891         0.945222         0.491921
 C        -2.007513         1.582197         1.868157
 C        -0.590628         2.435844         1.619968
 O        -3.021295         2.127752         2.631009
 C        -2.221017         1.719864         3.760868
 C        -1.506450         0.623341         2.880662
 C        -0.132136         0.245482         2.435029
 H         0.714045         1.299400        -0.629877
 H        -2.180191         1.619352        -0.338094
 H        -2.249703         0.078716         0.125442
 H        -0.757682         3.295319         0.763969
 H         0.061114         2.819395         2.494208
 H        -1.633879         2.516631         4.122721
 H        -2.901697         1.440172         4.614968
 H        -2.225792        -0.201220         2.991221
 H         0.650581         0.859360         2.971252
 H         0.021404        -0.856277         2.541133
