19
Iteration:  4576
 O         0.900925         0.850845         0.242900
 C        -0.290192         0.985042         1.049377
 C        -1.845913         0.833067         0.579032
 C        -1.981923         1.634601         1.840399
 C        -0.632525         2.345057         1.448883
 O        -2.935243         2.292729         2.673501
 C        -2.284140         1.601415         3.846292
 C        -1.603795         0.609660         2.856742
 C        -0.139086         0.266722         2.421664
 H         0.776805         1.608725        -0.367049
 H        -2.132008         1.363252        -0.354235
 H        -2.191413        -0.139286         0.368198
 H        -0.812213         2.956858         0.494538
 H         0.154210         2.894798         2.223240
 H        -1.566533         2.304731         4.281866
 H        -2.964624         1.172386         4.735255
 H        -2.074773        -0.361246         2.851451
 H         0.749332         0.624669         3.059036
 H        -0.118565        -0.808960         2.342012
