19
Iteration:  1463charge 0 multiplicity 1
 O         0.788543         0.809584         0.078181
 C        -0.158094         1.022499         1.102998
 C        -1.700392         0.898266         0.542270
 C        -1.959547         1.580217         1.864118
 C        -0.679116         2.404223         1.577440
 O        -3.036507         2.300943         2.642201
 C        -2.319564         1.755021         3.875819
 C        -1.605006         0.603546         2.947142
 C        -0.106461         0.143008         2.308171
 H         1.457063         0.094781         0.306389
 H        -1.804247         1.436874        -0.396203
 H        -2.027653        -0.125423         0.349820
 H        -0.870530         3.039266         0.842237
 H        -0.198404         2.793705         2.414757
 H        -1.621056         2.524116         4.376519
 H        -2.979772         1.292233         4.661624
 H        -2.392004        -0.095419         2.930377
 H         0.747197         0.523140         2.946189
 H        -0.070893        -0.906351         2.221969
