19
Iteration:  4255
 O         0.776335         0.815324         0.208658
 C        -0.223205         0.910935         1.088603
 C        -1.794617         0.867457         0.546017
 C        -1.923438         1.688973         1.848293
 C        -0.616995         2.418805         1.538946
 O        -3.051996         2.204476         2.574606
 C        -2.223498         1.672150         3.786064
 C        -1.543746         0.629429         2.916997
 C        -0.118242         0.184876         2.476593
 H         0.667860         1.471376        -0.453367
 H        -2.028315         1.485072        -0.364918
 H        -2.417321        -0.076026         0.511618
 H        -0.495332         3.246770         0.760090
 H        -0.151899         2.851045         2.364041
 H        -1.455825         2.415874         4.216549
 H        -2.967581         1.511710         4.780058
 H        -2.215256        -0.223000         2.651621
 H         0.710705         0.701704         3.041326
 H         0.026138        -0.960478         2.344470
