19
Iteration:   803charge 0 multiplicity 1
 O         0.909941         0.701742         0.161036
 C        -0.201494         0.928370         1.035592
 C        -1.859099         1.013299         0.447796
 C        -1.911914         1.768560         1.777978
 C        -0.542950         2.377060         1.575661
 O        -3.036008         2.239062         2.725687
 C        -2.261159         1.583793         3.867007
 C        -1.597833         0.675141         2.859747
 C        -0.295604         0.162076         2.415550
 H         1.613666         1.229194         0.526273
 H        -1.879788         1.727571        -0.333462
 H        -2.432825         0.141480         0.303343
 H        -0.485114         3.176314         0.706568
 H        -0.077635         2.727528         2.548586
 H        -1.683055         2.445425         4.281871
 H        -2.945584         1.120543         4.598154
 H        -2.372390        -0.061187         2.761745
 H         0.516284         0.466092         3.086322
 H        -0.258185        -0.911697         2.377389
