19
Iteration:  1843charge 0 multiplicity 1
 O         0.833118         0.859776         0.173828
 C        -0.236396         1.047903         1.064804
 C        -1.835890         0.974500         0.473815
 C        -1.923106         1.562942         1.841739
 C        -0.664998         2.457782         1.697240
 O        -2.990383         2.128347         2.608445
 C        -2.229242         1.696672         3.760652
 C        -1.512993         0.610858         2.957308
 C        -0.169371         0.167082         2.390566
 H         0.619503        -0.052578        -0.173605
 H        -1.984929         1.640551        -0.359738
 H        -2.424178         0.087654         0.291813
 H        -0.876905         3.194167         0.887736
 H         0.010636         2.956546         2.457829
 H        -1.637443         2.626717         4.065619
 H        -2.822571         1.354229         4.604933
 H        -2.108353        -0.273998         3.055465
 H         0.798691         0.560146         2.845125
 H        -0.252328        -0.895748         2.375427
