19
Iteration:  3089charge 0 multiplicity 1
 O         0.916756         0.733638         0.230158
 C        -0.207678         1.087615         1.013465
 C        -1.798504         0.884481         0.504971
 C        -1.951300         1.565430         1.818745
 C        -0.717213         2.443589         1.555817
 O        -3.024459         2.179370         2.728426
 C        -2.203055         1.749978         3.830116
 C        -1.587484         0.637058         2.888487
 C        -0.178702         0.186136         2.354846
 H         1.071566         1.348803        -0.477635
 H        -1.941357         1.339167        -0.430993
 H        -2.177471        -0.165724         0.501348
 H        -0.935960         3.310303         0.919143
 H        -0.143280         2.812548         2.394677
 H        -1.712851         2.731094         4.153132
 H        -2.797605         1.284566         4.633823
 H        -2.190146        -0.267197         2.872477
 H         0.523715         0.474853         3.114451
 H        -0.303951        -0.913914         2.189226
