19
Iteration:  4919
 O         0.926558         0.880844         0.149140
 C        -0.224559         1.028016         1.000357
 C        -1.694418         0.762100         0.553995
 C        -2.010313         1.603617         1.873413
 C        -0.812803         2.377686         1.496377
 O        -2.996002         2.343941         2.684470
 C        -2.257612         1.708889         3.860500
 C        -1.548807         0.624647         2.931756
 C        -0.139956         0.198247         2.402254
 H         0.991204         0.002371        -0.176625
 H        -1.874518         1.404509        -0.343577
 H        -2.166107        -0.222330         0.589846
 H        -1.079022         2.959503         0.733175
 H        -0.432435         3.042933         2.255893
 H        -1.608821         2.375192         4.443183
 H        -2.948040         1.045499         4.509686
 H        -2.183147        -0.230291         2.802927
 H         0.677435         0.526130         3.029945
 H        -0.060537        -0.906055         2.195266
