19
Iteration:   851
 O         0.809357         0.763018         0.120114
 C        -0.183565         1.068696         1.123675
 C        -1.686143         0.921892         0.470497
 C        -1.945539         1.661888         1.818883
 C        -0.630263         2.396309         1.699114
 O        -2.954953         2.316016         2.621263
 C        -2.191369         1.704335         3.881076
 C        -1.727385         0.601673         2.860338
 C        -0.260603         0.028598         2.389806
 H         1.384669         1.552156        -0.102660
 H        -1.785667         1.424112        -0.539366
 H        -2.048377        -0.147329         0.591815
 H        -0.755361         3.280642         0.778038
 H        -0.103679         2.804786         2.562223
 H        -1.529683         2.360476         4.357969
 H        -2.923656         1.198664         4.495686
 H        -2.668133        -0.021340         2.673292
 H         0.635811        -0.045313         3.048011
 H        -0.439011        -1.051350         2.152374
