19
Iteration:   728charge 0 multiplicity 1
 O         0.805307         0.766781         0.129048
 C        -0.249258         0.902781         1.056844
 C        -1.780183         1.040372         0.529263
 C        -1.948306         1.694419         1.836186
 C        -0.442623         2.426626         1.598558
 O        -3.066881         2.226770         2.650519
 C        -2.318135         1.603538         3.838435
 C        -1.650945         0.667016         2.877784
 C        -0.198597         0.175020         2.406376
 H         1.665697         0.561815         0.623387
 H        -1.808404         1.666691        -0.362189
 H        -2.276580         0.065210         0.389092
 H        -0.232067         3.160349         0.662745
 H         0.189871         2.683691         2.421653
 H        -1.568895         2.211139         4.237869
 H        -3.024587         1.262866         4.577763
 H        -2.315646        -0.215352         2.879333
 H         0.702381         0.679938         2.834894
 H        -0.162636        -0.869900         2.337557
