19
Iteration:  4853
 O         0.807340         0.821272         0.133875
 C        -0.212456         1.074073         1.136515
 C        -1.766993         0.897694         0.458526
 C        -1.956879         1.601403         1.774388
 C        -0.640069         2.411313         1.488865
 O        -3.021776         2.170334         2.723513
 C        -2.233968         1.661458         3.823115
 C        -1.583466         0.604133         2.881448
 C        -0.145590         0.324200         2.501876
 H         0.674938        -0.180585         0.094518
 H        -1.858945         1.457008        -0.483427
 H        -2.186675        -0.156379         0.488184
 H        -0.752581         3.136333         0.711341
 H        -0.219965         2.919645         2.393085
 H        -1.519105         2.397829         4.076482
 H        -2.916593         1.358076         4.694138
 H        -2.101981        -0.317563         2.961300
 H         0.674853         0.619912         3.121387
 H         0.047499        -0.765569         2.247781
