19
Iteration:    53
 O         0.928110         0.770716         0.364094
 C        -0.223589         1.017270         1.013591
 C        -1.689520         1.097163         0.419931
 C        -1.935134         1.686041         1.913119
 C        -0.440431         2.314112         1.764835
 O        -2.904462         2.402087         2.626225
 C        -2.284818         1.570648         3.794948
 C        -1.787142         0.535810         2.802736
 C        -0.436596         0.106014         2.219744
 H         0.824639         0.132484        -0.307326
 H        -1.902074         1.863178        -0.337056
 H        -2.072669         0.083918         0.258822
 H        -0.595031         3.179082         0.938973
 H         0.177245         2.601317         2.604809
 H        -1.696164         2.194086         4.476369
 H        -3.089335         1.179901         4.454146
 H        -2.628272        -0.142263         2.744396
 H         0.462636         0.376462         2.935888
 H        -0.346631        -0.929827         2.044246
