19
Iteration:   186charge 0 multiplicity 1
 O         0.968045         0.869801         0.332766
 C        -0.298207         0.895729         1.052055
 C        -1.767543         1.014658         0.455573
 C        -1.908926         1.761944         1.793884
 C        -0.568555         2.371576         1.653369
 O        -2.878735         2.415329         2.632660
 C        -2.293652         1.498118         3.809583
 C        -1.730082         0.560519         2.824600
 C        -0.345514         0.065650         2.374260
 H         0.946810         0.190262        -0.331382
 H        -1.700552         1.844660        -0.182609
 H        -2.395239         0.147926         0.366076
 H        -0.468726         3.115896         0.903958
 H         0.024326         2.586909         2.628041
 H        -1.538164         2.229513         4.146281
 H        -3.063555         1.379849         4.556792
 H        -2.418267        -0.218129         2.520074
 H         0.510758         0.392923         3.037784
 H        -0.432002        -1.021422         2.153230
