19
Iteration:  1574charge 0 multiplicity 1
 O         0.789293         0.881647         0.128599
 C        -0.210995         0.946830         1.053887
 C        -1.787960         0.823623         0.630190
 C        -1.896234         1.668389         1.825434
 C        -0.553423         2.415853         1.565752
 O        -3.047560         2.226492         2.665062
 C        -2.278772         1.627961         3.806636
 C        -1.572264         0.682815         2.855652
 C        -0.162281         0.264861         2.421971
 H         0.820119         0.002501        -0.277144
 H        -1.977519         1.511468        -0.217464
 H        -2.408516        -0.083827         0.593433
 H        -0.506255         3.017408         0.733845
 H         0.064342         2.711586         2.392126
 H        -1.740552         2.393994         4.413848
 H        -3.035663         1.167419         4.459756
 H        -2.221467        -0.146985         2.633802
 H         0.689737         0.598525         3.054816
 H        -0.070424        -0.837927         2.399804
