19
Iteration:   926
 O         0.834746         0.563071         0.280074
 C        -0.265247         1.067130         1.053005
 C        -1.676503         1.014730         0.441678
 C        -1.986690         1.743675         1.808788
 C        -0.589576         2.450340         1.613902
 O        -2.991386         2.306376         2.762678
 C        -2.264893         1.511935         3.847932
 C        -1.630827         0.603869         2.735385
 C        -0.219490         0.278123         2.375097
 H         0.752288         0.808422        -0.636402
 H        -1.791523         1.597141        -0.484484
 H        -2.074925        -0.016813         0.380171
 H        -0.749232         3.319004         0.877819
 H        -0.054683         2.831331         2.404295
 H        -1.404285         2.116080         4.318274
 H        -2.890491         1.101212         4.690284
 H        -2.291987        -0.292474         2.675627
 H         0.542865         0.585809         3.108945
 H         0.003815        -0.780268         2.279401
