19
Iteration:  1995charge 0 multiplicity 1
 O         0.919318         0.974377         0.127543
 C        -0.212997         1.068638         0.995836
 C        -1.847206         0.903963         0.569739
 C        -1.949114         1.529785         1.873251
 C        -0.657940         2.395055         1.553861
 O        -2.932247         2.256306         2.610195
 C        -2.286127         1.679759         3.799826
 C        -1.618152         0.520061         2.960806
 C        -0.172546         0.154371         2.470555
 H         0.826357         0.169351        -0.368315
 H        -2.139549         1.610096        -0.273506
 H        -2.510721        -0.042717         0.422280
 H        -0.907779         3.236476         0.954309
 H        -0.038395         2.726443         2.331687
 H        -1.716188         2.509881         4.208124
 H        -2.890096         1.330658         4.578662
 H        -2.151201        -0.408701         3.027214
 H         0.661458         0.274867         3.273113
 H        -0.052249        -0.887980         2.154119
