19
Iteration:  4046charge 0 multiplicity 1
 O         0.919443         0.737799         0.295831
 C        -0.244086         0.997929         1.024468
 C        -1.816554         0.823737         0.544270
 C        -1.982679         1.661877         1.831403
 C        -0.650360         2.424235         1.526630
 O        -2.983039         2.194225         2.684032
 C        -2.232805         1.709875         3.815613
 C        -1.557426         0.647996         2.860405
 C        -0.233295         0.235190         2.325413
 H         0.897838         1.480696        -0.340633
 H        -2.034474         1.224175        -0.381543
 H        -2.297252        -0.211630         0.511648
 H        -0.763373         3.300283         0.836103
 H        -0.051456         2.818886         2.316415
 H        -1.606181         2.491595         4.271597
 H        -2.892892         1.228008         4.669037
 H        -2.294438        -0.144725         2.939819
 H         0.496079         0.873522         2.944826
 H         0.111733        -0.771282         2.220325
