19
Iteration:  2967charge 0 multiplicity 1
 O         0.832118         0.670858         0.247698
 C        -0.234161         1.002177         1.020696
 C        -1.828365         0.942430         0.549323
 C        -1.961768         1.624790         1.886077
 C        -0.637296         2.514080         1.576746
 O        -2.986779         2.158870         2.647546
 C        -2.269897         1.661701         3.774776
 C        -1.599391         0.552179         2.864352
 C        -0.106694         0.346252         2.407718
 H         0.818741         1.120443        -0.566595
 H        -1.969116         1.501757        -0.440403
 H        -2.304886        -0.145316         0.631876
 H        -0.604294         3.101241         0.671694
 H        -0.150709         2.995950         2.427967
 H        -1.513722         2.460221         4.180740
 H        -2.751326         1.372527         4.688321
 H        -2.183353        -0.309146         2.556011
 H         0.608181         0.802350         3.153473
 H         0.112705        -0.687958         2.222587
