19
Iteration:  4257charge 0 multiplicity 1
 O         0.778035         0.809863         0.213121
 C        -0.222647         0.908145         1.095523
 C        -1.815979         0.875235         0.540605
 C        -1.900944         1.684010         1.840865
 C        -0.626123         2.427204         1.520845
 O        -3.051269         2.203640         2.592931
 C        -2.236581         1.675789         3.775295
 C        -1.544453         0.615122         2.920560
 C        -0.109065         0.200340         2.478853
 H         0.687021         1.464042        -0.442675
 H        -1.972722         1.539410        -0.419775
 H        -2.423856         0.006844         0.541040
 H        -0.493850         3.162795         0.794057
 H        -0.141223         2.812647         2.362487
 H        -1.493216         2.383168         4.196439
 H        -2.928186         1.511507         4.734939
 H        -2.190872        -0.256109         2.661493
 H         0.686530         0.677828         3.040093
 H         0.048631        -0.935678         2.366872
