19
Iteration:  3292
 O         0.844929         0.692731         0.182920
 C        -0.221699         0.985230         1.081459
 C        -1.780581         0.934178         0.503437
 C        -1.902051         1.674874         1.771869
 C        -0.632693         2.470642         1.518125
 O        -3.064700         2.169190         2.722431
 C        -2.238493         1.653243         3.842359
 C        -1.599624         0.620329         2.898573
 C        -0.142922         0.283347         2.446423
 H         0.809384         1.292976        -0.545669
 H        -1.870741         1.590654        -0.437997
 H        -2.495638         0.007952         0.163747
 H        -0.670056         3.086692         0.604649
 H        -0.130955         2.782268         2.463746
 H        -1.478549         2.379076         4.318507
 H        -2.973390         1.169001         4.555693
 H        -2.266425        -0.281864         2.756161
 H         0.623868         0.690584         3.092681
 H         0.124142        -0.756926         2.601589
