19
Iteration:  1175charge 0 multiplicity 1
 O         0.826207         0.764579         0.252948
 C        -0.247695         1.024017         1.106888
 C        -1.756970         0.854265         0.515070
 C        -1.987445         1.720991         1.776443
 C        -0.662973         2.370040         1.523679
 O        -3.019758         2.226987         2.751189
 C        -2.101875         1.662723         3.786771
 C        -1.617170         0.613594         2.798019
 C        -0.247664         0.223212         2.420487
 H         1.085382         1.407808        -0.374724
 H        -1.740738         1.291251        -0.479248
 H        -2.237830        -0.109817         0.579722
 H        -0.615930         3.053289         0.682814
 H        -0.155784         2.937393         2.343558
 H        -1.291258         2.365671         4.005010
 H        -2.767505         1.373659         4.636924
 H        -2.331570        -0.224198         2.760602
 H         0.612739         0.483289         3.047954
 H        -0.066012        -0.852667         2.409766
