19
Iteration:  1759charge 0 multiplicity 1
 O         0.886768         0.867985         0.183423
 C        -0.276657         0.994447         0.962941
 C        -1.799086         0.922732         0.476000
 C        -2.029169         1.670779         1.837833
 C        -0.632719         2.391053         1.492157
 O        -2.969517         2.270055         2.741204
 C        -2.333840         1.590969         3.851180
 C        -1.554940         0.554138         2.893215
 C        -0.094228         0.276176         2.444756
 H         1.010696        -0.074939         0.040328
 H        -2.067726         1.546104        -0.390993
 H        -2.215746        -0.053617         0.526665
 H        -0.748950         3.199661         0.825539
 H         0.064139         2.471545         2.307006
 H        -1.646693         2.196972         4.418889
 H        -3.207596         1.317970         4.494011
 H        -2.204736        -0.305501         2.946590
 H         0.790561         0.720907         2.928210
 H         0.136600        -0.801627         2.412114
