19
Iteration:  3052
 O         0.818739         0.798618         0.257654
 C        -0.228507         0.999647         1.079892
 C        -1.805790         0.918071         0.482988
 C        -1.953300         1.593557         1.853452
 C        -0.632221         2.409783         1.472380
 O        -3.030406         2.185912         2.678353
 C        -2.219211         1.696582         3.790523
 C        -1.526643         0.589673         2.885814
 C        -0.167082         0.205438         2.421459
 H         0.849381         1.600615        -0.335030
 H        -1.888066         1.442255        -0.421401
 H        -2.292950        -0.036497         0.452787
 H        -0.945073         3.103735         0.655470
 H        -0.045993         2.853997         2.344037
 H        -1.418858         2.381195         4.150955
 H        -2.851585         1.427721         4.635859
 H        -2.394927        -0.076904         2.841722
 H         0.605827         0.637289         3.204178
 H         0.100291        -0.827647         2.460396
