19
Iteration:   157charge 0 multiplicity 1
 O         0.818209         0.765196         0.163184
 C        -0.149080         1.040095         1.156999
 C        -1.677161         1.062521         0.416264
 C        -1.904660         1.706743         1.729826
 C        -0.413376         2.393063         1.681383
 O        -2.984938         2.333559         2.726993
 C        -2.375695         1.570428         3.810663
 C        -1.729777         0.566647         2.831784
 C        -0.346276         0.121826         2.380243
 H         1.343297        -0.038134         0.502719
 H        -1.673377         1.840231        -0.395721
 H        -2.097435         0.040858         0.164143
 H        -0.409033         3.189041         0.956213
 H         0.110222         2.616695         2.638559
 H        -1.669183         2.278132         4.218847
 H        -3.163381         1.219390         4.510631
 H        -2.540695        -0.205416         2.712039
 H         0.401022         0.126302         3.124723
 H        -0.542750        -0.953261         2.038186
