19
Iteration:  3728charge 0 multiplicity 1
 O         0.865945         0.737925         0.239707
 C        -0.242753         0.941764         1.068701
 C        -1.785117         0.864237         0.541078
 C        -2.050460         1.661411         1.756673
 C        -0.634546         2.413666         1.576286
 O        -2.994991         2.169570         2.704474
 C        -2.164056         1.712310         3.755638
 C        -1.571790         0.633442         2.832097
 C        -0.216333         0.278315         2.437023
 H         0.839966         1.541926        -0.356954
 H        -1.609326         1.514302        -0.391516
 H        -2.295397        -0.094033         0.412695
 H        -0.864755         3.147222         0.712932
 H        -0.065411         2.866981         2.434110
 H        -1.602181         2.594956         4.217986
 H        -2.811884         1.328266         4.697552
 H        -2.233049        -0.242948         2.932717
 H         0.596467         0.639561         3.055697
 H         0.028670        -0.668641         2.370545
