19
Iteration:  1237charge 0 multiplicity 1
 O         0.669521         0.730775         0.009587
 C        -0.195197         1.076372         1.028781
 C        -1.705711         0.841573         0.505929
 C        -1.920397         1.657055         1.852465
 C        -0.656920         2.455619         1.632030
 O        -2.946870         2.256408         2.583621
 C        -2.324109         1.663655         3.858059
 C        -1.551016         0.611026         2.947276
 C        -0.115284         0.219404         2.517224
 H         1.555600         0.510456         0.219483
 H        -1.798247         1.347677        -0.468692
 H        -2.204774        -0.153434         0.436783
 H        -0.854634         3.206227         0.951265
 H        -0.274782         2.850497         2.600099
 H        -1.756800         2.432004         4.506369
 H        -3.118079         1.311837         4.426924
 H        -2.158587        -0.270579         2.949786
 H         0.636531         0.733395         3.106392
 H        -0.029646        -0.838480         2.468691
