19
Iteration:   752charge 0 multiplicity 1
 O         0.754671         0.770791         0.012558
 C        -0.225191         0.976969         1.051988
 C        -1.705050         0.971477         0.497996
 C        -1.946382         1.669612         1.806213
 C        -0.599963         2.352017         1.690093
 O        -2.857391         2.328507         2.653571
 C        -2.380253         1.601400         3.820802
 C        -1.674662         0.610447         2.860428
 C        -0.161067         0.198435         2.537488
 H         1.555295         0.637967         0.486724
 H        -1.747050         1.675395        -0.396643
 H        -2.221797        -0.022026         0.287189
 H        -0.812165         3.202895         0.923295
 H         0.031405         2.603826         2.423061
 H        -1.773938         2.150506         4.511266
 H        -3.340785         1.309677         4.244551
 H        -2.306893        -0.327943         2.888006
 H         0.567855         0.722753         3.225175
 H        -0.058851        -0.883045         2.361596
