19
Iteration:  4646
 O         0.850152         0.732019         0.198715
 C        -0.213589         0.956871         1.024666
 C        -1.796034         0.991634         0.585087
 C        -1.886544         1.696541         1.866869
 C        -0.622478         2.500615         1.486546
 O        -3.017287         2.057253         2.658910
 C        -2.310071         1.628703         3.855633
 C        -1.587713         0.695970         2.891840
 C        -0.143154         0.239481         2.448104
 H         0.685329         0.974215        -0.710197
 H        -1.995563         1.354807        -0.346435
 H        -2.276776        -0.026791         0.526620
 H        -0.755664         3.193531         0.655536
 H        -0.043893         3.024366         2.329174
 H        -1.611951         2.546920         4.291892
 H        -3.048478         1.299966         4.598081
 H        -2.316752        -0.058245         2.585876
 H         0.722480         0.622805         2.883484
 H        -0.027860        -0.866269         2.366733
