19
Iteration:  4430charge 0 multiplicity 1
 O         0.926124         0.747846         0.274394
 C        -0.295471         0.949487         0.967715
 C        -1.853450         0.870835         0.475904
 C        -1.948489         1.654292         1.810881
 C        -0.699186         2.373137         1.502678
 O        -2.923780         2.265451         2.741864
 C        -2.266410         1.590326         3.858933
 C        -1.601838         0.631233         2.844131
 C        -0.159734         0.335290         2.464667
 H         1.008461         1.396161        -0.476219
 H        -1.944385         1.626589        -0.395569
 H        -2.250336        -0.194042         0.435652
 H        -0.864977         3.068235         0.474422
 H        -0.176013         2.785522         2.383731
 H        -1.563467         2.281941         4.226758
 H        -3.006985         1.098255         4.425245
 H        -2.318999        -0.226120         2.688193
 H         0.566125         0.995705         3.001849
 H         0.348977        -0.686004         2.685071
