19
Iteration:  1038
 O         0.847393         0.708581         0.230229
 C        -0.286325         1.048394         1.061994
 C        -1.801200         0.953798         0.508468
 C        -1.927535         1.779285         1.835570
 C        -0.604832         2.485392         1.455492
 O        -2.960040         2.189846         2.736005
 C        -2.204557         1.601025         3.820188
 C        -1.636912         0.626351         2.860147
 C        -0.286023         0.128844         2.378551
 H         1.713289         1.132506         0.556307
 H        -1.953671         1.676479        -0.342110
 H        -2.122680        -0.122464         0.434900
 H        -0.494183         3.237683         0.567134
 H        -0.074245         2.814003         2.262112
 H        -1.527281         2.462041         4.230442
 H        -2.853800         1.056596         4.556618
 H        -2.416135        -0.181069         2.699083
 H         0.545879         0.261226         3.092607
 H        -0.113330        -0.970902         2.239710
