19
Iteration:  3384
 O         0.815690         0.758259         0.232677
 C        -0.254335         1.032415         0.994360
 C        -1.821271         0.926919         0.495681
 C        -1.894477         1.626343         1.832946
 C        -0.678873         2.437552         1.601732
 O        -2.943966         2.170492         2.632464
 C        -2.219448         1.718827         3.814430
 C        -1.634030         0.580485         2.898874
 C        -0.150442         0.199769         2.445327
 H         0.943476         1.485326        -0.440073
 H        -1.953182         1.366429        -0.540364
 H        -2.066594        -0.190328         0.692694
 H        -0.874037         3.090242         0.721462
 H        -0.210255         2.982519         2.438851
 H        -1.414683         2.413294         4.136093
 H        -2.940789         1.564068         4.592499
 H        -2.307744        -0.277131         2.858984
 H         0.643569         0.487845         3.122484
 H         0.006005        -0.836633         2.377251
