19
Iteration:  2975charge 0 multiplicity 1
 O         0.877289         0.677756         0.213291
 C        -0.223332         1.057588         1.058612
 C        -1.877655         0.935018         0.603008
 C        -1.912452         1.667758         1.863354
 C        -0.637924         2.496242         1.517076
 O        -3.013622         2.166776         2.639960
 C        -2.254101         1.607729         3.749890
 C        -1.563686         0.577977         2.858123
 C        -0.118720         0.265444         2.475714
 H         0.716753         1.051911        -0.635826
 H        -2.172656         1.633271        -0.089472
 H        -2.286281        -0.012363         0.487742
 H        -0.724482         3.164915         0.653983
 H        -0.090454         3.130197         2.237780
 H        -1.601761         2.403957         4.121820
 H        -2.920265         1.124887         4.513055
 H        -2.367314        -0.156803         2.772324
 H         0.641871         0.870585         3.089310
 H        -0.016378        -0.806242         2.492331
