19
Iteration:  4361charge 0 multiplicity 1
 O         0.849089         0.815129         0.136904
 C        -0.191495         1.016617         1.033315
 C        -1.741986         0.865919         0.532563
 C        -1.995444         1.549273         1.839366
 C        -0.574383         2.305783         1.625732
 O        -3.033269         2.226080         2.619999
 C        -2.289179         1.800894         3.866657
 C        -1.606222         0.628058         2.968116
 C        -0.152170         0.226081         2.388431
 H         0.654810         1.207946        -0.694190
 H        -2.018217         1.506384        -0.294222
 H        -2.101665        -0.240649         0.252455
 H        -0.759557         3.107566         0.864386
 H        -0.202880         2.606998         2.625729
 H        -1.678372         2.635826         4.125524
 H        -2.887835         1.392025         4.550901
 H        -2.310775        -0.216944         3.058897
 H         0.703159         0.662784         2.935909
 H         0.099061        -0.816029         2.216953
