19
Iteration:  3981charge 0 multiplicity 1
 O         0.831593         0.675260         0.176670
 C        -0.268747         1.037269         1.072710
 C        -1.753333         0.840497         0.519320
 C        -1.957445         1.644102         1.818343
 C        -0.583040         2.469735         1.602250
 O        -3.069240         2.297563         2.631531
 C        -2.296486         1.608651         3.813916
 C        -1.555995         0.595924         2.926402
 C        -0.115432         0.310956         2.404008
 H         0.736348         1.096715        -0.653162
 H        -1.860856         1.267836        -0.435909
 H        -2.181502        -0.252380         0.596542
 H        -0.830173         3.445546         0.983837
 H         0.115685         2.762133         2.434065
 H        -1.773288         2.315102         4.251756
 H        -2.997959         1.314145         4.667128
 H        -1.986579        -0.396493         2.820983
 H         0.730627         0.697311         3.018542
 H         0.151021        -0.683002         2.302901
