19
Iteration:    33
 O         0.916982         0.803806         0.265478
 C        -0.212556         0.964973         1.090618
 C        -1.749065         1.180809         0.406875
 C        -1.880775         1.774659         1.838086
 C        -0.476663         2.370617         1.714347
 O        -2.945374         2.285853         2.668233
 C        -2.345457         1.640969         3.812610
 C        -1.762107         0.538066         2.731103
 C        -0.378633        -0.022303         2.374314
 H         1.175927        -0.164355         0.264406
 H        -1.503660         1.864237        -0.405369
 H        -2.505565         0.434511         0.161314
 H        -0.312717         3.256527         1.042937
 H        -0.000180         2.451223         2.686377
 H        -1.455715         2.183553         4.153672
 H        -2.946439         1.473838         4.703315
 H        -2.559124        -0.165475         2.560900
 H         0.524036         0.126552         3.022094
 H        -0.360557        -1.041126         2.056881
