19
Iteration:   918charge 0 multiplicity 1
 O         0.835501         0.568368         0.287916
 C        -0.183244         1.038862         1.021449
 C        -1.774923         1.061677         0.451413
 C        -1.970708         1.686125         1.831545
 C        -0.616098         2.414988         1.637191
 O        -2.949246         2.326182         2.777093
 C        -2.260109         1.534988         3.768908
 C        -1.690772         0.576046         2.783204
 C        -0.166308         0.293088         2.421732
 H         0.795295         0.905250        -0.581407
 H        -1.759651         1.672063        -0.495813
 H        -2.151324        -0.006142         0.283142
 H        -0.969851         3.284407         0.763482
 H        -0.040341         2.926836         2.514475
 H        -1.621534         2.276150         4.167953
 H        -2.929228         1.057536         4.474151
 H        -2.276293        -0.363970         2.572216
 H         0.690545         0.672756         2.992702
 H        -0.031900        -0.790899         2.097200
