19
Iteration:   360charge 0 multiplicity 1
 O         0.877205         0.759103         0.213577
 C        -0.265080         0.987587         1.011210
 C        -1.651583         1.090344         0.484682
 C        -1.967182         1.704748         1.888768
 C        -0.525823         2.333667         1.719827
 O        -3.056729         2.334524         2.609721
 C        -2.255565         1.709017         3.785650
 C        -1.706011         0.535730         2.868069
 C        -0.288327         0.070917         2.303754
 H         1.410802        -0.052797         0.484645
 H        -1.758400         1.806050        -0.356192
 H        -2.195863         0.176502         0.173251
 H        -0.702907         3.240140         1.169533
 H         0.198435         2.721744         2.591091
 H        -1.607413         2.484368         4.291372
 H        -2.882709         1.178006         4.527373
 H        -2.381681        -0.332271         2.997748
 H         0.689963         0.345625         2.835503
 H        -0.051234        -1.022856         2.164620
