19
Iteration:   603
 O         0.768377         0.566851         0.176885
 C        -0.214544         1.036357         0.968922
 C        -1.636283         0.998919         0.416689
 C        -1.916142         1.700896         1.828042
 C        -0.562809         2.422094         1.650282
 O        -2.955235         2.284889         2.626739
 C        -2.368967         1.604730         3.873862
 C        -1.655333         0.630640         2.934738
 C        -0.247808         0.249846         2.415023
 H         1.461323         1.237946         0.175503
 H        -1.723310         1.587917        -0.478445
 H        -2.137990         0.070711         0.314664
 H        -0.813747         3.348895         1.244916
 H         0.123971         2.524747         2.664646
 H        -1.743356         2.282892         4.456741
 H        -3.118061         1.162416         4.546595
 H        -2.440663        -0.086061         2.763622
 H         0.596348         0.582422         2.926058
 H        -0.056471        -0.847721         2.271906
