19
Iteration:  1824
 O         0.894224         0.916953         0.163503
 C        -0.230942         0.992212         1.010347
 C        -1.733763         0.885109         0.490867
 C        -2.073733         1.640144         1.798389
 C        -0.654322         2.348953         1.577988
 O        -3.060364         2.181346         2.716070
 C        -2.183695         1.724685         3.908867
 C        -1.608195         0.667675         2.897130
 C        -0.166193         0.179910         2.364844
 H         0.984430        -0.007241        -0.240156
 H        -1.776307         1.592322        -0.348733
 H        -2.137134        -0.081646         0.287249
 H        -0.707165         3.192528         0.871253
 H        -0.014849         2.455520         2.516715
 H        -1.427351         2.484179         4.275566
 H        -2.927949         1.432043         4.732842
 H        -2.187774        -0.261526         2.888937
 H         0.669971         0.453363         3.029384
 H        -0.073325        -0.868775         2.133818
