19
Iteration:  2690
 O         0.569082         0.825861         0.085348
 C        -0.248023         0.947822         1.155501
 C        -1.657608         0.699170         0.570722
 C        -1.977328         1.702967         1.768690
 C        -0.657620         2.423655         1.582529
 O        -2.984683         2.243215         2.633055
 C        -2.193570         1.643899         3.833023
 C        -1.541650         0.716107         2.826333
 C        -0.078804         0.301957         2.463024
 H         1.496832         0.612509         0.429069
 H        -1.644074         1.280539        -0.424264
 H        -1.962165        -0.370179         0.676184
 H        -0.607616         3.286859         0.896582
 H        -0.346482         2.695561         2.577808
 H        -1.705403         2.457177         4.288187
 H        -2.921051         1.171162         4.491352
 H        -2.111018        -0.231045         2.622408
 H         0.747919         0.760349         2.955014
 H        -0.114625        -0.771216         2.388874
