19
Iteration:  3573
 O         0.896939         0.821705         0.256609
 C        -0.271933         1.014975         1.067641
 C        -1.805881         0.812519         0.564337
 C        -1.980673         1.627316         1.821177
 C        -0.631806         2.397913         1.514520
 O        -2.948435         2.267344         2.659742
 C        -2.192149         1.652475         3.803103
 C        -1.604398         0.578080         2.859863
 C        -0.221633         0.226983         2.433065
 H         0.762698         1.515305        -0.431275
 H        -2.096207         1.444769        -0.472001
 H        -2.168856        -0.225498         0.528926
 H        -0.816828         3.096196         0.686461
 H        -0.191381         3.088218         2.335313
 H        -1.327735         2.361861         4.010906
 H        -3.018564         1.273473         4.601985
 H        -2.366616        -0.232167         2.919867
 H         0.693856         0.628513         2.984760
 H        -0.200867        -0.882726         2.216129
