19
Iteration:  1117
 O         0.797535         0.877000         0.167786
 C        -0.229263         0.945648         1.054761
 C        -1.796430         0.860550         0.618992
 C        -1.928509         1.718284         1.815248
 C        -0.502178         2.435800         1.562045
 O        -3.029113         2.251007         2.671320
 C        -2.340637         1.664803         3.829593
 C        -1.601706         0.636859         2.849016
 C        -0.133733         0.133436         2.397055
 H         0.904447         0.116076        -0.501183
 H        -1.904586         1.385511        -0.338636
 H        -2.336549        -0.083361         0.525810
 H        -0.440402         3.113902         0.774202
 H         0.070147         2.729499         2.419024
 H        -1.607887         2.353769         4.416793
 H        -3.049666         1.377488         4.560656
 H        -2.235219        -0.233460         2.761038
 H         0.729574         0.624737         2.832360
 H        -0.099293        -0.948875         2.406394
