19
Iteration:  3927
 O         0.901563         0.738307         0.243369
 C        -0.251644         1.020198         1.060644
 C        -1.721756         0.839058         0.539600
 C        -2.001509         1.635316         1.818242
 C        -0.683103         2.428196         1.545438
 O        -2.982772         2.238242         2.719591
 C        -2.250361         1.720434         3.808756
 C        -1.651473         0.615523         2.865947
 C        -0.148926         0.197704         2.355182
 H         0.982613         1.428127        -0.434068
 H        -2.146788         1.315902        -0.304222
 H        -2.046730        -0.289165         0.448518
 H        -0.866777         3.143480         0.624760
 H        -0.045647         2.920759         2.331039
 H        -1.429216         2.433764         4.180228
 H        -3.011504         1.523774         4.646988
 H        -2.305634        -0.273207         2.848902
 H         0.585667         0.716527         2.924089
 H         0.028699        -0.808001         2.207892
