19
Iteration:  3739charge 0 multiplicity 1
 O         0.865702         0.755456         0.215375
 C        -0.271987         0.957174         1.035088
 C        -1.714865         0.918056         0.470035
 C        -1.950512         1.613562         1.887175
 C        -0.650065         2.373145         1.526133
 O        -3.062719         2.181032         2.658734
 C        -2.186580         1.733247         3.831017
 C        -1.620562         0.635931         2.910012
 C        -0.184589         0.243385         2.440165
 H         0.917931         1.610085        -0.369696
 H        -1.879744         1.461109        -0.512232
 H        -2.122047        -0.100454         0.361001
 H        -0.853019         3.169763         0.731041
 H         0.118619         2.764748         2.220980
 H        -1.423118         2.537719         4.045812
 H        -2.848077         1.335014         4.710861
 H        -2.291055        -0.236658         2.934547
 H         0.572841         0.735754         3.043196
 H        -0.153827        -0.744536         2.458100
