19
Iteration:  3410
 O         0.911038         0.732080         0.225974
 C        -0.263653         0.984967         0.979065
 C        -1.741745         0.861364         0.526889
 C        -2.017543         1.591080         1.826469
 C        -0.677641         2.419188         1.557905
 O        -3.056720         2.213103         2.722139
 C        -2.207497         1.720979         3.883012
 C        -1.621626         0.684027         2.875216
 C        -0.151309         0.257136         2.340567
 H         1.012375         1.555859        -0.309474
 H        -1.599924         1.427272        -0.494493
 H        -2.220955         0.006691         0.251995
 H        -0.758780         3.175311         0.825178
 H         0.052129         2.677136         2.345205
 H        -1.475551         2.415939         4.147729
 H        -2.959374         1.434865         4.658055
 H        -2.145111        -0.245476         2.990120
 H         0.726938         0.376007         3.070798
 H        -0.194400        -0.956287         2.280538
