19
Iteration:   857
 O         0.824113         0.784993         0.105202
 C        -0.166011         1.005396         1.106320
 C        -1.675296         0.896784         0.519386
 C        -1.960602         1.700084         1.794591
 C        -0.587634         2.413058         1.660081
 O        -2.979511         2.338335         2.668189
 C        -2.259428         1.670908         3.901066
 C        -1.697741         0.614495         2.805878
 C        -0.265253         0.012136         2.370611
 H         1.247303         1.590829        -0.072517
 H        -1.718630         1.219639        -0.492886
 H        -2.022178        -0.102418         0.601764
 H        -0.648409         3.163323         0.946248
 H        -0.112889         2.840792         2.553603
 H        -1.644690         2.554939         4.348989
 H        -2.944372         1.337137         4.733837
 H        -2.545449        -0.032711         2.711514
 H         0.586126        -0.043315         3.060268
 H        -0.428045        -1.035352         2.136695
