19
Iteration:  1572charge 0 multiplicity 1
 O         0.795431         0.880964         0.126065
 C        -0.217945         0.944595         1.047109
 C        -1.771207         0.819303         0.631998
 C        -1.890193         1.666900         1.817144
 C        -0.558504         2.406338         1.554804
 O        -3.048843         2.239645         2.679343
 C        -2.287266         1.628086         3.805852
 C        -1.582548         0.677322         2.854290
 C        -0.160373         0.260127         2.431411
 H         0.823916         0.039628        -0.292699
 H        -1.982983         1.512761        -0.175953
 H        -2.392192        -0.075755         0.649058
 H        -0.488857         3.102958         0.735820
 H        -0.000126         2.790669         2.368327
 H        -1.729164         2.328830         4.351602
 H        -3.015404         1.141775         4.450447
 H        -2.214313        -0.152581         2.679850
 H         0.717508         0.590648         3.088808
 H        -0.108888        -0.813113         2.346665
