19
Iteration:   132
 O         0.816841         0.617132         0.168195
 C        -0.214958         0.913604         1.072852
 C        -1.647784         1.229067         0.425155
 C        -1.847417         1.793244         1.854649
 C        -0.575133         2.384924         1.760314
 O        -2.988016         2.301109         2.640756
 C        -2.392804         1.597806         3.819408
 C        -1.644168         0.591686         2.841641
 C        -0.276590         0.051684         2.305452
 H         1.635196         0.730087         0.661411
 H        -1.691875         1.920805        -0.387643
 H        -2.165454         0.308307         0.189839
 H        -0.684711         3.191151         1.076999
 H         0.088025         2.630066         2.664134
 H        -1.871755         2.376527         4.342329
 H        -3.218877         1.161722         4.351859
 H        -2.532501         0.000621         2.653735
 H         0.421405         0.517211         3.006219
 H        -0.116489        -1.057150         2.339130
