19
Iteration:   369
 O         0.821468         0.766466         0.219959
 C        -0.215708         0.991371         1.110340
 C        -1.667953         1.096802         0.480900
 C        -1.980294         1.638420         1.875842
 C        -0.528744         2.370222         1.727432
 O        -3.023214         2.340166         2.545333
 C        -2.254625         1.673886         3.834411
 C        -1.692773         0.576709         2.877376
 C        -0.202218         0.076221         2.266246
 H         1.152847        -0.180313         0.307761
 H        -1.840682         1.958754        -0.180755
 H        -2.199840         0.149094         0.172240
 H        -0.519599         3.056825         0.871047
 H        -0.179983         2.542918         2.710480
 H        -1.614225         2.505077         4.209837
 H        -2.987426         1.285330         4.547865
 H        -2.360991        -0.299010         2.913910
 H         0.577980         0.315208         3.004677
 H        -0.353595        -0.895950         1.924877
