19
Iteration:   392charge 0 multiplicity 1
 O         0.857925         0.833631         0.186831
 C        -0.225611         0.981446         1.071913
 C        -1.719411         1.013953         0.426994
 C        -1.863775         1.755980         1.837287
 C        -0.492709         2.437910         1.686364
 O        -2.921688         2.240570         2.654090
 C        -2.327427         1.687035         3.756729
 C        -1.707666         0.583298         2.853257
 C        -0.326390         0.033423         2.473926
 H         0.734887        -0.008156        -0.299237
 H        -1.707301         1.617057        -0.509035
 H        -2.345365         0.091961         0.407600
 H        -0.755900         3.186243         0.982238
 H         0.033341         2.553283         2.663137
 H        -1.656383         2.417311         4.307158
 H        -3.044172         1.166724         4.409892
 H        -2.441426        -0.241592         2.786947
 H         0.544081         0.326090         3.139884
 H        -0.439526        -0.983323         2.180242
