19
Iteration:   880
 O         0.862508         0.807955         0.191971
 C        -0.286940         0.941074         1.027182
 C        -1.761275         0.919816         0.495138
 C        -1.879274         1.713560         1.869902
 C        -0.482753         2.314928         1.565794
 O        -2.982206         2.310367         2.697554
 C        -2.319159         1.634206         3.812934
 C        -1.676047         0.619750         2.904132
 C        -0.253115         0.151907         2.383012
 H         1.092622         1.732921        -0.122648
 H        -1.892265         1.532080        -0.375803
 H        -2.306460         0.011748         0.418726
 H        -0.493466         3.018977         0.764157
 H         0.218016         2.609023         2.294423
 H        -1.684350         2.286972         4.538042
 H        -3.098195         1.132637         4.447095
 H        -2.501181        -0.016420         2.661779
 H         0.711597         0.377164         2.870355
 H        -0.288979        -0.902829         2.377656
