19
Iteration:  2030
 O         0.807446         0.929548         0.191720
 C        -0.288665         1.018240         1.040650
 C        -1.691469         0.805935         0.478047
 C        -1.997879         1.682454         1.784159
 C        -0.566646         2.409597         1.468383
 O        -2.965540         2.270476         2.796963
 C        -2.273718         1.524843         3.853886
 C        -1.581317         0.633678         2.841538
 C        -0.210085         0.271172         2.427610
 H         1.010135        -0.001395         0.060712
 H        -1.885364         1.324882        -0.492108
 H        -2.244382        -0.120151         0.695755
 H        -0.722436         3.124523         0.641530
 H         0.128721         2.643488         2.256501
 H        -1.700734         2.241171         4.392380
 H        -2.954831         0.981518         4.490850
 H        -2.265064        -0.232863         2.808839
 H         0.572142         0.696770         3.200434
 H        -0.152652        -0.776429         2.197023
