19
Iteration:  2221
 O         0.782194         0.829117        -0.048603
 C        -0.150661         1.022489         1.054639
 C        -1.746338         0.876919         0.540450
 C        -1.926848         1.634849         1.795479
 C        -0.638281         2.375949         1.695904
 O        -3.047283         2.204866         2.766137
 C        -2.330615         1.655283         3.830202
 C        -1.594406         0.650176         2.823998
 C        -0.098855         0.272326         2.402210
 H         1.464031         0.194729         0.380902
 H        -2.003097         1.480782        -0.316212
 H        -2.264476        -0.000011         0.453891
 H        -0.571907         3.254282         1.005689
 H        -0.151345         2.688749         2.743254
 H        -1.732971         2.314179         4.385642
 H        -3.109634         1.395602         4.547157
 H        -2.064449        -0.326912         2.825884
 H         0.577004         0.709349         3.066272
 H        -0.134178        -0.886545         2.501020
