19
Iteration:  3637charge 0 multiplicity 1
 O         0.786484         0.679185         0.163663
 C        -0.256962         1.016326         1.097689
 C        -1.735643         0.860607         0.499957
 C        -1.943233         1.679376         1.844036
 C        -0.584043         2.450400         1.554113
 O        -2.970649         2.169385         2.604583
 C        -2.310953         1.656207         3.888760
 C        -1.599087         0.628876         2.853392
 C        -0.131704         0.288481         2.459020
 H         0.618835         1.330410        -0.473753
 H        -1.909925         1.565314        -0.347122
 H        -2.082494        -0.179529         0.598696
 H        -0.836937         3.286962         0.872403
 H        -0.224539         3.009466         2.547130
 H        -1.589547         2.499793         4.145750
 H        -3.030691         1.462853         4.797740
 H        -2.186800        -0.304400         2.658598
 H         0.684764         0.664614         3.083460
 H         0.182868        -0.667800         2.261142
