19
Iteration:  4023charge 0 multiplicity 1
 O         0.860237         0.783469         0.182709
 C        -0.231337         0.933611         1.046622
 C        -1.784522         0.860235         0.495137
 C        -1.971788         1.675004         1.856756
 C        -0.615970         2.432889         1.482498
 O        -3.027859         2.259602         2.652666
 C        -2.308739         1.631731         3.848193
 C        -1.588216         0.635229         2.928760
 C        -0.087098         0.212499         2.504493
 H         0.784402         1.593826        -0.457610
 H        -1.838383         1.282943        -0.446804
 H        -2.377770        -0.070834         0.366648
 H        -0.757978         3.084783         0.583435
 H         0.008408         2.967228         2.086109
 H        -1.553449         2.352682         4.317904
 H        -3.077614         1.255686         4.650366
 H        -2.261781        -0.218265         2.878742
 H         0.901520         0.565138         3.067549
 H        -0.154055        -0.860681         2.443360
