19
Iteration:   140charge 0 multiplicity 1
 O         0.798099         0.667122         0.168859
 C        -0.234914         0.916494         1.030466
 C        -1.590835         1.167133         0.389464
 C        -1.928229         1.775284         1.923572
 C        -0.554386         2.405855         1.736443
 O        -2.983052         2.297168         2.614427
 C        -2.369586         1.595228         3.854815
 C        -1.691533         0.656006         2.852019
 C        -0.284906         0.040728         2.358613
 H         1.596002         0.404196         0.695208
 H        -1.336587         1.920294        -0.359164
 H        -2.184645         0.308147         0.047923
 H        -0.451554         3.250940         0.945974
 H        -0.027140         2.675825         2.634885
 H        -1.718446         2.232827         4.512757
 H        -3.181930         1.084038         4.383075
 H        -2.384332        -0.139652         2.596085
 H         0.685722         0.375038         2.936166
 H        -0.253661        -1.000270         2.126971
