19
Iteration:  4888charge 0 multiplicity 1
 O         0.793743         0.966849         0.129201
 C        -0.287754         0.964814         1.011679
 C        -1.757499         0.813497         0.537676
 C        -1.935918         1.613034         1.883618
 C        -0.596909         2.340196         1.533510
 O        -3.005703         2.161885         2.593416
 C        -2.273952         1.743657         3.847341
 C        -1.527486         0.658333         2.984036
 C        -0.186756         0.248516         2.431235
 H         1.239588         0.065530         0.272532
 H        -1.982389         1.429390        -0.399264
 H        -2.215583        -0.180515         0.506779
 H        -0.764184         3.114341         0.624637
 H         0.040798         2.722065         2.444965
 H        -1.682746         2.499136         4.290759
 H        -2.900426         1.363122         4.611948
 H        -2.169860        -0.202526         2.945168
 H         0.709422         0.609801         2.925840
 H        -0.152466        -0.837710         2.262109
