19
Iteration:  2128charge 0 multiplicity 1
 O         0.794782         1.019009         0.172276
 C        -0.186022         1.075000         1.106820
 C        -1.709297         0.880202         0.513408
 C        -1.965819         1.596056         1.847206
 C        -0.704826         2.412635         1.520954
 O        -2.898198         2.262105         2.632664
 C        -2.199393         1.640551         3.879411
 C        -1.630634         0.482704         2.910777
 C        -0.247620         0.114594         2.408205
 H         0.605716         0.262847        -0.354572
 H        -1.803724         1.434111        -0.496524
 H        -2.235715        -0.194068         0.461280
 H        -0.835524         2.979826         0.571426
 H        -0.017273         2.932741         2.122893
 H        -1.412057         2.264537         4.429901
 H        -2.999470         1.417571         4.608072
 H        -2.364929        -0.342648         2.911470
 H         0.538906         0.514045         3.190806
 H        -0.155212        -0.956594         2.238205
