19
Iteration:  3653charge 0 multiplicity 1
 O         0.786225         0.724096         0.178547
 C        -0.247736         1.011904         1.053221
 C        -1.740417         0.860022         0.606375
 C        -1.941966         1.678931         1.848432
 C        -0.618640         2.437489         1.589467
 O        -3.034218         2.239351         2.636193
 C        -2.265780         1.618723         3.724814
 C        -1.554383         0.635892         2.902151
 C        -0.122968         0.292852         2.452980
 H         0.737291         1.222557        -0.649973
 H        -1.774392         1.316066        -0.408771
 H        -2.338651        -0.055493         0.509504
 H        -0.596073         3.063657         0.683024
 H        -0.020408         2.736035         2.348886
 H        -1.694529         2.291873         4.352812
 H        -2.968259         1.114294         4.387097
 H        -2.225817        -0.219570         2.857970
 H         0.677389         0.784600         3.017080
 H         0.011171        -0.880022         2.541062
