19
Iteration:  3901
 O         0.838796         0.819334         0.192069
 C        -0.256104         0.998281         1.081555
 C        -1.782170         0.775706         0.501149
 C        -2.012376         1.603045         1.766807
 C        -0.651980         2.396732         1.567118
 O        -2.970740         2.294103         2.606627
 C        -2.185867         1.684041         3.825412
 C        -1.586369         0.635084         2.945236
 C        -0.160135         0.202744         2.462518
 H         0.991357         1.620481        -0.298586
 H        -2.024150         1.438625        -0.392563
 H        -2.236219        -0.148403         0.408555
 H        -0.696866         3.224613         0.867710
 H        -0.082304         2.631679         2.437491
 H        -1.618434         2.388192         4.287693
 H        -2.991113         1.231412         4.365094
 H        -2.184081        -0.249308         3.171103
 H         0.670991         0.632410         3.087331
 H        -0.158216        -0.914543         2.289006
