19
Iteration:  3967
 O         0.866328         0.691823         0.255696
 C        -0.227487         0.979559         1.005258
 C        -1.786745         0.899913         0.536962
 C        -1.949707         1.710337         1.834803
 C        -0.657946         2.453279         1.551052
 O        -3.041763         2.170046         2.690234
 C        -2.287905         1.691209         3.808709
 C        -1.551055         0.640512         2.861692
 C        -0.118228         0.253298         2.411219
 H         0.737081         1.003671        -0.690457
 H        -1.906534         1.550740        -0.347534
 H        -2.268528        -0.027775         0.508009
 H        -0.596721         3.102759         0.701181
 H        -0.226667         2.851231         2.406090
 H        -1.624880         2.433400         4.292940
 H        -2.946837         1.136123         4.485257
 H        -2.316185        -0.127884         2.802870
 H         0.706968         0.810118         2.998961
 H         0.137188        -0.845802         2.397835
