19
Iteration:  1705charge 0 multiplicity 1
 O         0.757881         0.866980         0.143541
 C        -0.231025         0.971355         1.099941
 C        -1.702239         0.839174         0.504046
 C        -1.902451         1.658895         1.844065
 C        -0.618276         2.442958         1.640617
 O        -3.077318         2.233579         2.623441
 C        -2.207471         1.615452         3.846941
 C        -1.566643         0.643039         2.917979
 C        -0.160534         0.246600         2.358360
 H         0.841008        -0.016378        -0.164777
 H        -1.966698         1.488706        -0.403523
 H        -2.126686        -0.157913         0.242748
 H        -0.764282         3.201402         0.936283
 H        -0.069620         2.806828         2.493288
 H        -1.563591         2.337109         4.236845
 H        -2.939703         1.283116         4.589426
 H        -2.308222        -0.165528         2.850573
 H         0.651342         0.706894         2.963920
 H        -0.042102        -0.876523         2.240798
