19
Iteration:   834
 O         0.798047         0.730846         0.209369
 C        -0.263288         0.998629         1.054433
 C        -1.713980         1.012435         0.483765
 C        -1.963336         1.585662         1.834140
 C        -0.600888         2.400213         1.655958
 O        -2.904113         2.293825         2.634506
 C        -2.229173         1.677037         3.770972
 C        -1.636276         0.508747         2.893395
 C        -0.323313         0.171887         2.358969
 H         1.422531         1.521428         0.283369
 H        -1.714543         1.804968        -0.254228
 H        -2.174941         0.108091         0.114705
 H        -0.761620         3.156210         1.035122
 H        -0.082290         2.786747         2.585720
 H        -1.411945         2.471998         4.064964
 H        -2.875051         1.617526         4.674510
 H        -2.320616        -0.319381         2.983799
 H         0.531494         0.351442         3.009425
 H        -0.217771        -0.937646         2.177993
