19
Iteration:  3581
 O         0.884298         0.806521         0.290197
 C        -0.263009         1.009209         1.063116
 C        -1.824797         0.856096         0.494314
 C        -1.937675         1.655110         1.804205
 C        -0.646671         2.438788         1.472697
 O        -2.959328         2.240127         2.703817
 C        -2.207501         1.696384         3.741375
 C        -1.575891         0.562200         2.912911
 C        -0.207363         0.176485         2.419446
 H         0.779213         1.509174        -0.428144
 H        -2.275011         1.171200        -0.412984
 H        -2.255389        -0.175768         0.625777
 H        -0.781524         3.223129         0.731733
 H        -0.133962         2.678197         2.461099
 H        -1.624723         2.524531         4.275727
 H        -2.848896         1.251175         4.544539
 H        -2.288258        -0.285101         2.951211
 H         0.488278         0.601835         3.108929
 H         0.040347        -0.758450         2.145061
