19
Iteration:  1257charge 0 multiplicity 1
 O         0.731635         0.722212         0.034617
 C        -0.282175         0.953425         1.112735
 C        -1.727839         0.859604         0.585084
 C        -1.944157         1.720872         1.840218
 C        -0.542734         2.476903         1.583964
 O        -3.067271         2.182047         2.709696
 C        -2.252392         1.622686         3.789828
 C        -1.603317         0.655097         2.795892
 C        -0.146204         0.338816         2.500952
 H         1.631515         0.564513         0.365101
 H        -1.758047         1.404767        -0.369636
 H        -2.199602        -0.133183         0.464148
 H        -0.462775         3.055186         0.683673
 H         0.099976         2.757350         2.435366
 H        -1.626143         2.380108         4.125518
 H        -2.763629         1.239404         4.600300
 H        -2.210246        -0.209777         2.547419
 H         0.567555         0.881745         3.107135
 H         0.002872        -0.718015         2.425418
