19
Iteration:  2520charge 0 multiplicity 1
 O         0.779199         0.677387         0.138443
 C        -0.224025         1.014407         1.082873
 C        -1.654983         0.971719         0.444511
 C        -1.968614         1.634713         1.849943
 C        -0.646425         2.413859         1.466918
 O        -2.951824         2.188201         2.749442
 C        -2.255823         1.591987         3.908005
 C        -1.647803         0.657143         2.878384
 C        -0.211762         0.266628         2.430349
 H         1.405152         1.476209         0.095849
 H        -1.807732         1.614329        -0.336509
 H        -2.181056         0.039748         0.277766
 H        -0.965682         3.063780         0.612547
 H         0.064342         3.244163         1.866366
 H        -1.781620         2.430110         4.407283
 H        -2.924236         1.174337         4.616607
 H        -2.361643        -0.148503         2.785878
 H         0.587476         0.667338         3.182015
 H        -0.022936        -0.808659         2.357576
