19
Iteration:   545
 O         0.905944         0.751535         0.190352
 C        -0.217632         0.920472         1.036570
 C        -1.668123         0.907690         0.514884
 C        -2.020375         1.707709         1.823550
 C        -0.635917         2.349963         1.578676
 O        -2.880431         2.354364         2.700458
 C        -2.270699         1.644431         3.812189
 C        -1.703151         0.664651         2.921173
 C        -0.359981         0.120124         2.327112
 H         1.445637         1.586783         0.427064
 H        -1.798995         1.443231        -0.470358
 H        -2.013947        -0.179931         0.387049
 H        -0.533198         3.260821         0.826455
 H        -0.114286         2.702094         2.603315
 H        -1.630029         2.387530         4.362503
 H        -3.067644         1.145958         4.428905
 H        -2.474185        -0.114251         2.727445
 H         0.507906         0.445264         2.951852
 H        -0.279357        -0.933957         2.132734
