19
Iteration:   963
 O         0.871193         0.755189         0.180783
 C        -0.194545         1.035779         1.074968
 C        -1.765047         1.013785         0.557313
 C        -1.952104         1.685259         1.888569
 C        -0.555172         2.354625         1.581882
 O        -3.013649         2.300323         2.665067
 C        -2.330505         1.631494         3.806014
 C        -1.577429         0.619356         2.893674
 C        -0.194152         0.065194         2.380178
 H         0.675273         1.193285        -0.620333
 H        -1.889644         1.669411        -0.351460
 H        -2.430552         0.116461         0.455607
 H        -0.713409         3.041623         0.609659
 H         0.202510         2.749230         2.404198
 H        -1.639219         2.242127         4.315591
 H        -3.172524         1.338657         4.393102
 H        -2.234724        -0.213076         2.630517
 H         0.616336         0.365383         3.023037
 H        -0.363230        -1.037570         2.223516
