19
Iteration:  4336charge 0 multiplicity 1
 O         0.859646         0.828107         0.200469
 C        -0.269928         0.933154         1.053945
 C        -1.825921         0.846922         0.530274
 C        -1.932945         1.708952         1.844218
 C        -0.614192         2.431233         1.480177
 O        -2.960052         2.225678         2.636858
 C        -2.269018         1.619713         3.818884
 C        -1.604946         0.607830         2.937213
 C        -0.159712         0.238476         2.512315
 H         0.688400         1.119356        -0.655879
 H        -1.712789         1.442023        -0.406864
 H        -2.407635        -0.081295         0.385977
 H        -0.829301         3.002677         0.726517
 H        -0.071312         2.915752         2.310892
 H        -1.543527         2.407031         4.137247
 H        -2.958782         1.204732         4.635491
 H        -2.298314        -0.192765         2.751094
 H         0.696088         0.678667         2.990747
 H         0.103964        -0.774327         2.409909
