19
Iteration:  3001
 O         0.857032         0.769269         0.188452
 C        -0.283140         0.964834         1.040306
 C        -1.700697         0.830174         0.495657
 C        -1.928573         1.685321         1.834894
 C        -0.614669         2.419725         1.465869
 O        -2.992353         2.239326         2.742937
 C        -2.405018         1.601225         3.942252
 C        -1.582279         0.648356         2.892888
 C        -0.096783         0.317580         2.393683
 H         0.632769         1.045534        -0.687919
 H        -1.797029         1.471607        -0.469821
 H        -2.216220        -0.229243         0.302403
 H        -0.467450         3.004312         0.551213
 H        -0.038406         2.950125         2.209392
 H        -1.845028         2.464701         4.447508
 H        -3.075309         0.981247         4.512540
 H        -2.376478        -0.082962         2.874264
 H         0.753921         0.665099         2.963913
 H        -0.130292        -0.795642         2.416931
