19
Iteration:  2569charge 0 multiplicity 1
 O         0.794199         0.953522         0.128705
 C        -0.271249         0.943696         1.014555
 C        -1.801938         0.837245         0.476764
 C        -1.962374         1.590453         1.834111
 C        -0.628735         2.323899         1.588227
 O        -2.947873         2.243447         2.631702
 C        -2.226200         1.745487         3.860769
 C        -1.574527         0.616511         2.975796
 C        -0.157323         0.231426         2.404531
 H         1.078406         0.045006         0.097274
 H        -1.773030         1.491311        -0.493553
 H        -2.221404        -0.173674         0.295413
 H        -0.594801         3.189261         0.952821
 H        -0.218216         2.694388         2.479157
 H        -1.690223         2.571350         4.372261
 H        -2.997354         1.314316         4.552666
 H        -2.261373        -0.292081         3.081609
 H         0.617922         0.643376         2.967886
 H        -0.074824        -0.871622         2.465982
