19
Iteration:  2208charge 0 multiplicity 1
 O         0.732183         0.806981         0.063464
 C        -0.206755         1.012816         1.047944
 C        -1.716282         0.940469         0.532987
 C        -1.985196         1.656815         1.881332
 C        -0.601637         2.482554         1.635075
 O        -3.064501         2.199264         2.655319
 C        -2.298261         1.610652         3.863236
 C        -1.529539         0.626703         2.911084
 C        -0.122189         0.223702         2.378486
 H         1.364942         0.130187         0.186093
 H        -1.743968         1.504617        -0.398952
 H        -2.106241        -0.103978         0.383671
 H        -0.714286         3.215979         0.826364
 H         0.028152         2.910072         2.509593
 H        -1.764338         2.403444         4.311942
 H        -2.849862         0.930397         4.562433
 H        -2.301968        -0.167633         2.819658
 H         0.750832         0.554804         2.947465
 H         0.101299        -0.896521         2.147271
