19
Iteration:  3320
 O         0.801640         0.667129         0.227610
 C        -0.272059         1.069742         1.061501
 C        -1.709748         0.922024         0.570778
 C        -1.912333         1.645479         1.836847
 C        -0.643695         2.473074         1.545965
 O        -2.990980         2.253652         2.633324
 C        -2.268992         1.565339         3.845111
 C        -1.571482         0.589053         2.904889
 C        -0.153151         0.326612         2.359534
 H         0.760951         1.046477        -0.627529
 H        -2.057759         1.382187        -0.338349
 H        -2.116593        -0.025970         0.517557
 H        -0.892274         3.079030         0.679623
 H        -0.025315         2.939728         2.299463
 H        -1.661901         2.213990         4.406582
 H        -3.057951         1.079912         4.433582
 H        -2.198583        -0.283914         2.820205
 H         0.694888         0.771008         2.986716
 H        -0.097225        -0.812658         2.356975
