19
Iteration:  3261charge 0 multiplicity 1
 O         0.847323         0.765869         0.230260
 C        -0.199609         1.086496         1.050014
 C        -1.795212         0.801599         0.492679
 C        -1.940105         1.592047         1.826249
 C        -0.629921         2.438883         1.523179
 O        -3.019416         2.250716         2.696673
 C        -2.272154         1.729523         3.837028
 C        -1.628954         0.577570         2.949015
 C        -0.148016         0.203505         2.355919
 H         0.885189         1.481869        -0.470016
 H        -1.877876         1.480282        -0.357199
 H        -2.318369        -0.263397         0.503837
 H        -0.627964         3.269171         0.739601
 H        -0.004572         2.764112         2.400266
 H        -1.524691         2.379381         4.330450
 H        -2.979857         1.441404         4.570482
 H        -2.198265        -0.372172         2.804324
 H         0.740353         0.434918         2.934928
 H        -0.036270        -0.819685         2.109420
