19
Iteration:   149
 O         0.810577         0.718319         0.153997
 C        -0.256156         0.994293         1.096387
 C        -1.607702         1.071563         0.413689
 C        -1.914647         1.717222         1.783411
 C        -0.449239         2.424354         1.720446
 O        -2.994747         2.326841         2.669447
 C        -2.387972         1.569058         3.861426
 C        -1.699801         0.602892         2.822190
 C        -0.313476         0.115882         2.394965
 H         1.455725         0.138769         0.626342
 H        -1.459208         1.886907        -0.375965
 H        -2.201127         0.325827        -0.152086
 H        -0.305664         3.244496         0.897908
 H         0.008567         2.711317         2.618701
 H        -1.671775         2.228390         4.464907
 H        -3.135854         1.203368         4.615447
 H        -2.377099        -0.276309         2.710687
 H         0.658167        -0.002025         2.993509
 H        -0.543354        -0.900632         2.113099
