19
Iteration:  4178
 O         0.868998         0.716448         0.296273
 C        -0.251072         1.016513         1.047686
 C        -1.928073         0.853224         0.523925
 C        -1.966181         1.669542         1.797770
 C        -0.597694         2.494571         1.482867
 O        -2.982246         2.198488         2.713194
 C        -2.229817         1.639575         3.827027
 C        -1.646789         0.605819         2.813981
 C        -0.116836         0.305809         2.478273
 H         1.054092         1.267289        -0.451441
 H        -2.107690         1.263415        -0.477703
 H        -2.192092        -0.255010         0.419351
 H        -0.505616         3.172092         0.602313
 H        -0.000069         2.802338         2.211749
 H        -1.318600         2.273152         3.888676
 H        -2.924819         1.238978         4.735859
 H        -2.239443        -0.301598         2.576802
 H         0.704259         0.901483         3.046538
 H         0.113188        -0.804850         2.449267
