19
Iteration:  2335
 O         0.793391         0.832500         0.165476
 C        -0.190764         1.036802         1.115696
 C        -1.765744         0.954760         0.578134
 C        -1.932142         1.690323         1.900980
 C        -0.686041         2.403360         1.612978
 O        -2.901360         2.225478         2.575057
 C        -2.278258         1.562504         3.797337
 C        -1.561077         0.604333         2.842045
 C        -0.189025         0.182909         2.419906
 H         0.291556         0.651482        -0.685722
 H        -1.934817         1.553855        -0.301165
 H        -2.384205        -0.014926         0.497357
 H        -0.675526         3.135660         0.760114
 H        -0.078759         2.899090         2.430344
 H        -1.649591         2.324702         4.297327
 H        -2.961965         1.211935         4.569726
 H        -2.177772        -0.319515         2.807373
 H         0.655772         0.465076         3.143602
 H        -0.175004        -0.832479         2.229572
