19
Iteration:   316charge 0 multiplicity 1
 O         0.805514         0.749317         0.220107
 C        -0.301161         0.988722         1.117524
 C        -1.653309         0.990549         0.480053
 C        -1.910164         1.749405         1.879879
 C        -0.566312         2.426134         1.615539
 O        -2.916747         2.438850         2.695942
 C        -2.325425         1.514390         3.744564
 C        -1.681076         0.584639         2.774494
 C        -0.285874         0.052220         2.357078
 H         1.645807         0.944810         0.746933
 H        -1.504006         1.338684        -0.540679
 H        -2.279347         0.076215         0.420430
 H        -0.727317         3.021987         0.701957
 H         0.113405         2.909852         2.449020
 H        -1.494940         2.065833         4.302371
 H        -3.126620         1.236537         4.426300
 H        -2.297202        -0.231659         2.436181
 H         0.389687         0.235274         3.269639
 H        -0.324817        -1.052834         2.300679
