19
Iteration:  1324charge 0 multiplicity 1
 O         0.736001         0.862141         0.089703
 C        -0.242363         0.987750         1.055003
 C        -1.679279         0.738509         0.527107
 C        -2.015049         1.678441         1.840720
 C        -0.574336         2.373189         1.599960
 O        -2.948858         2.308968         2.685572
 C        -2.261717         1.707968         3.816431
 C        -1.646967         0.577626         2.876206
 C        -0.192567         0.199682         2.435753
 H         1.461094         1.412675         0.403732
 H        -1.847643         1.255431        -0.427732
 H        -2.041616        -0.288488         0.368763
 H        -0.555145         2.950607         0.743584
 H         0.009605         2.691332         2.489137
 H        -1.555689         2.384043         4.175339
 H        -2.908050         1.483464         4.553926
 H        -2.296412        -0.275907         2.816122
 H         0.598054         0.561716         3.096403
 H        -0.179632        -0.848282         2.358807
