19
Iteration:   890charge 0 multiplicity 1
 O         0.861668         0.762966         0.238712
 C        -0.262303         0.946201         0.978442
 C        -1.854461         1.038688         0.479254
 C        -1.925461         1.678533         1.845960
 C        -0.507403         2.336358         1.554112
 O        -2.899590         2.312583         2.616108
 C        -2.333112         1.576443         3.927809
 C        -1.642763         0.610100         2.852411
 C        -0.225704         0.144494         2.450856
 H         1.058327         1.588097        -0.228559
 H        -1.948412         1.588793        -0.436277
 H        -2.296694         0.079457         0.382231
 H        -0.696013         3.031008         0.895933
 H         0.142342         2.676668         2.351708
 H        -1.769362         2.465355         4.385490
 H        -3.130524         1.172207         4.593014
 H        -2.257047        -0.271435         2.790228
 H         0.583190         0.621714         3.025836
 H        -0.122555        -0.914554         2.298624
