19
Iteration:  4750
 O         0.840614         0.664878         0.176788
 C        -0.208270         1.052208         0.977549
 C        -1.778989         0.921651         0.456703
 C        -2.004207         1.530205         1.863241
 C        -0.687085         2.403048         1.635396
 O        -3.069517         2.138764         2.600994
 C        -2.208953         1.714018         3.852537
 C        -1.524451         0.725665         2.988543
 C        -0.158893         0.316425         2.386197
 H         1.351805         1.264637        -0.294146
 H        -1.920819         1.723909        -0.385817
 H        -2.143096        -0.118339         0.450139
 H        -0.850635         3.264949         0.982896
 H        -0.222303         2.641067         2.496233
 H        -1.608771         2.651753         4.306405
 H        -2.864697         1.359931         4.745576
 H        -2.028413        -0.262080         3.208960
 H         0.864914         0.601576         2.853593
 H        -0.132396        -0.734935         2.067368
