19
Iteration:  3721
 O         0.846338         0.735401         0.255642
 C        -0.224019         0.999308         1.109211
 C        -1.812522         0.823905         0.537610
 C        -2.043306         1.679922         1.715214
 C        -0.648828         2.431031         1.575178
 O        -2.987349         2.191827         2.699668
 C        -2.173184         1.684038         3.780123
 C        -1.571963         0.637306         2.850086
 C        -0.169008         0.262553         2.445094
 H         1.040413         1.384861        -0.508779
 H        -1.806917         1.372006        -0.354490
 H        -2.466727        -0.068289         0.313773
 H        -0.630956         3.096158         0.737126
 H        -0.354447         2.874066         2.475859
 H        -1.495125         2.430659         4.199227
 H        -2.765817         1.354625         4.551513
 H        -2.297873        -0.169407         2.793939
 H         0.623390         0.759824         2.995966
 H         0.062243        -0.874092         2.168515
