19
Iteration:  2284charge 0 multiplicity 1
 O         0.912430         0.721770         0.161705
 C        -0.220198         1.032148         0.935760
 C        -1.753227         0.818549         0.484416
 C        -1.981542         1.679064         1.819410
 C        -0.647460         2.518667         1.631553
 O        -3.105700         2.253745         2.743966
 C        -2.157898         1.615393         3.902246
 C        -1.565186         0.669189         2.838328
 C        -0.255583         0.170188         2.335563
 H         1.524391         1.526236         0.192636
 H        -2.047566         1.390660        -0.423861
 H        -2.212937        -0.237135         0.578509
 H        -0.828138         3.283190         0.906759
 H        -0.234173         2.933780         2.568837
 H        -1.425263         2.291457         4.438766
 H        -2.898427         1.044279         4.577341
 H        -2.294756        -0.192852         2.883054
 H         0.596416         0.512338         2.920229
 H        -0.177481        -0.980870         2.295729
