19
Iteration:  2568charge 0 multiplicity 1
 O         0.792160         0.948130         0.133031
 C        -0.269754         0.951243         1.014278
 C        -1.807043         0.835182         0.481555
 C        -1.957940         1.596990         1.837994
 C        -0.629913         2.316861         1.593780
 O        -2.955148         2.245766         2.631926
 C        -2.224919         1.750371         3.859348
 C        -1.569751         0.622065         2.966643
 C        -0.158116         0.229816         2.391077
 H         1.138220         0.041124         0.115012
 H        -1.767564         1.444669        -0.486731
 H        -2.219710        -0.163616         0.327729
 H        -0.598317         3.176643         0.960968
 H        -0.215611         2.708999         2.486651
 H        -1.710058         2.530673         4.384276
 H        -2.997597         1.297678         4.544310
 H        -2.231438        -0.304934         3.067842
 H         0.614313         0.635828         2.958635
 H        -0.057796        -0.871222         2.460686
