19
Iteration:   556charge 0 multiplicity 1
 O         0.849415         0.772135         0.246778
 C        -0.300733         0.950981         1.066321
 C        -1.744678         0.907803         0.453174
 C        -1.897453         1.689273         1.784944
 C        -0.533958         2.387711         1.563983
 O        -2.942888         2.320466         2.699505
 C        -2.267806         1.624498         3.845769
 C        -1.657567         0.648665         2.769747
 C        -0.332448         0.139234         2.441647
 H         1.397175         1.522558         0.470676
 H        -1.850379         1.598483        -0.424675
 H        -2.227017        -0.117462         0.325016
 H        -0.500321         3.011315         0.580515
 H         0.203069         2.794057         2.389703
 H        -1.514424         2.252744         4.406879
 H        -2.949275         1.165400         4.620142
 H        -2.464484        -0.114845         2.684432
 H         0.529684         0.384895         3.102530
 H        -0.376412        -0.937233         2.396601
