19
Iteration:  4230charge 0 multiplicity 1
 O         0.847597         0.805133         0.127903
 C        -0.155531         1.032482         1.050703
 C        -1.671917         0.787605         0.515413
 C        -1.938416         1.568925         1.847956
 C        -0.666754         2.382490         1.583636
 O        -3.020427         2.232043         2.692764
 C        -2.279375         1.799436         3.799998
 C        -1.614270         0.625998         2.983432
 C        -0.249589         0.223682         2.356961
 H         0.759396         1.335226        -0.618091
 H        -1.758708         1.149509        -0.454937
 H        -2.125334        -0.281179         0.591807
 H        -0.714043         3.320917         0.894660
 H        -0.061293         2.743282         2.510683
 H        -1.627821         2.580939         4.312228
 H        -2.867577         1.389548         4.640034
 H        -2.250913        -0.242505         3.027790
 H         0.604437         0.360065         3.080986
 H        -0.342991        -0.779473         2.028267
