19
Iteration:  4538charge 0 multiplicity 1
 O         0.904637         0.734572         0.210246
 C        -0.181198         1.040477         1.046148
 C        -1.705628         0.816172         0.497213
 C        -2.058097         1.610037         1.831972
 C        -0.746287         2.454390         1.527145
 O        -3.009870         2.279599         2.757126
 C        -2.208717         1.650130         3.834882
 C        -1.602863         0.604729         2.865336
 C        -0.182022         0.241029         2.388954
 H         1.108454         1.432366        -0.370717
 H        -1.936461         1.455470        -0.426368
 H        -2.040917        -0.315221         0.397077
 H        -0.950554         3.101745         0.638987
 H        -0.226057         2.998283         2.236514
 H        -1.473255         2.392885         4.314913
 H        -2.775135         1.512416         4.696528
 H        -2.340802        -0.255865         2.829527
 H         0.676725         0.516314         3.004594
 H        -0.201457        -0.853329         2.108776
