19
Iteration:  1960
 O         0.780715         0.903915         0.173627
 C        -0.209429         0.966325         1.046196
 C        -1.679143         0.889892         0.502626
 C        -1.995578         1.713241         1.803880
 C        -0.661030         2.432276         1.576718
 O        -3.111394         2.156798         2.756187
 C        -2.218987         1.712536         3.845879
 C        -1.572724         0.613978         2.770511
 C        -0.103586         0.163048         2.434131
 H         1.016834         0.039766        -0.094677
 H        -1.494484         1.537524        -0.393071
 H        -2.294910        -0.090186         0.273514
 H        -0.523120         3.257270         0.927528
 H        -0.108636         2.530950         2.502046
 H        -1.662758         2.652518         4.103084
 H        -2.650113         1.109059         4.661465
 H        -2.332477        -0.160420         2.967532
 H         0.758907         0.429009         3.023373
 H        -0.201651        -0.944973         2.194748
