19
Iteration:  3807
 O         0.874640         0.717926         0.187524
 C        -0.170110         1.053371         1.048054
 C        -1.783778         0.899130         0.481604
 C        -1.932542         1.635309         1.807693
 C        -0.600703         2.384700         1.490640
 O        -2.980991         2.206252         2.733516
 C        -2.301406         1.667799         3.839420
 C        -1.653597         0.592180         2.881967
 C        -0.175488         0.294623         2.526237
 H         0.632263         1.165300        -0.633082
 H        -1.911333         1.400581        -0.438338
 H        -2.463072        -0.052836         0.529692
 H        -0.864144         3.063737         0.617030
 H        -0.015572         2.965755         2.167687
 H        -1.513737         2.391562         4.300248
 H        -3.073246         1.230193         4.516197
 H        -2.322710        -0.235961         2.643922
 H         0.514207         0.852229         3.143791
 H         0.075027        -0.679573         2.317567
