19
Iteration:   840charge 0 multiplicity 1
 O         0.793704         0.744268         0.181680
 C        -0.232133         1.037316         1.077925
 C        -1.698535         0.968062         0.476132
 C        -1.931409         1.610045         1.849439
 C        -0.635286         2.404512         1.700919
 O        -2.908168         2.290494         2.606647
 C        -2.181717         1.683756         3.769228
 C        -1.672357         0.568570         2.918263
 C        -0.332533         0.109629         2.389344
 H         1.408858         1.444437         0.103130
 H        -1.833996         1.731415        -0.341416
 H        -2.170130         0.006477         0.107956
 H        -0.787826         3.273188         0.853372
 H        -0.126260         2.789394         2.569335
 H        -1.397576         2.235591         4.205584
 H        -2.934124         1.477819         4.537153
 H        -2.360305        -0.321131         2.961141
 H         0.503527         0.340318         3.075180
 H        -0.325135        -0.901368         1.941158
