19
Iteration:  2198charge 0 multiplicity 1
 O         0.735411         0.828073         0.112839
 C        -0.328228         1.086521         1.043490
 C        -1.702653         0.986479         0.531867
 C        -1.888741         1.723252         1.887965
 C        -0.608194         2.454640         1.508706
 O        -3.018364         2.124440         2.616170
 C        -2.260093         1.558678         3.886285
 C        -1.553268         0.594046         2.958516
 C        -0.131025         0.208771         2.415970
 H         1.125682         0.054347         0.526694
 H        -1.657662         1.496296        -0.412191
 H        -2.123092         0.013112         0.377434
 H        -0.826844         3.205112         0.733582
 H        -0.009332         2.987357         2.369761
 H        -1.692803         2.286946         4.356671
 H        -3.076277         1.313930         4.614411
 H        -2.210320        -0.291388         2.815159
 H         0.783272         0.482110         2.890425
 H        -0.184570        -0.912729         2.067963
