19
Iteration:  4585
 O         0.883444         0.815463         0.213976
 C        -0.254214         0.986078         1.035210
 C        -1.850344         0.873551         0.555342
 C        -1.952893         1.568144         1.859221
 C        -0.650910         2.396164         1.482857
 O        -2.960757         2.300278         2.659278
 C        -2.266540         1.640378         3.799318
 C        -1.590519         0.552532         2.936205
 C        -0.125131         0.248128         2.415377
 H         0.868456         1.494356        -0.503909
 H        -1.948913         1.562625        -0.399006
 H        -2.310672        -0.097760         0.523198
 H        -0.893403         3.161146         0.658133
 H        -0.108946         2.893429         2.365256
 H        -1.643436         2.261234         4.349347
 H        -2.990426         1.196994         4.518468
 H        -2.286545        -0.316468         2.924264
 H         0.651179         0.847436         3.009656
 H         0.128432        -0.819095         2.383536
