19
Iteration:  2283
 O         0.909086         0.722666         0.160123
 C        -0.220197         1.036557         0.948345
 C        -1.757898         0.816172         0.477708
 C        -1.979775         1.685469         1.815623
 C        -0.655622         2.536832         1.630652
 O        -3.099425         2.256488         2.741223
 C        -2.164978         1.609636         3.904093
 C        -1.557856         0.660331         2.836781
 C        -0.249897         0.155482         2.335506
 H         1.535376         1.523805         0.221856
 H        -2.047448         1.388008        -0.426901
 H        -2.237778        -0.256583         0.598402
 H        -0.828805         3.273479         0.895684
 H        -0.219991         2.909595         2.526035
 H        -1.415599         2.315729         4.419242
 H        -2.907917         1.053411         4.586303
 H        -2.293865        -0.194660         2.913182
 H         0.622856         0.488140         2.944895
 H        -0.190180        -0.955212         2.310873
