19
Iteration:  2593
 O         0.835983         0.886753         0.094686
 C        -0.190625         1.008221         1.006983
 C        -1.720506         0.919096         0.509158
 C        -1.940842         1.568138         1.891432
 C        -0.654713         2.340710         1.527935
 O        -3.016122         2.224066         2.662059
 C        -2.182269         1.750421         3.799910
 C        -1.652806         0.535016         2.944490
 C        -0.204983         0.181686         2.587843
 H         0.319331         0.760613        -0.774081
 H        -1.694112         1.610895        -0.438292
 H        -2.120426        -0.134697         0.278671
 H        -0.985468         3.011523         0.708337
 H        -0.149473         3.089102         2.111598
 H        -1.279693         2.450178         4.098054
 H        -2.819230         1.607889         4.668262
 H        -2.295034        -0.371767         2.919683
 H         0.480952         0.682293         3.321116
 H        -0.072552        -0.900546         2.589819
