19
Iteration:  2383charge 0 multiplicity 1
 O         0.909635         0.861178         0.104582
 C        -0.253316         0.954895         1.049970
 C        -1.762480         0.963678         0.478128
 C        -1.962244         1.667309         1.833558
 C        -0.616922         2.416942         1.505518
 O        -2.968964         2.226864         2.762374
 C        -2.293062         1.585936         3.906508
 C        -1.630755         0.629595         2.884829
 C        -0.222631         0.230755         2.420851
 H         1.341898         0.011416         0.206806
 H        -1.617357         1.580157        -0.487834
 H        -2.284561         0.012862         0.193958
 H        -0.814321         3.107682         0.742069
 H        -0.100268         2.928047         2.227700
 H        -1.684948         2.263620         4.561708
 H        -3.068637         1.148762         4.621020
 H        -2.354631        -0.208871         2.771866
 H         0.652895         0.461177         2.957565
 H        -0.283763        -0.875450         2.183724
