19
Iteration:  3453
 O         0.877041         0.777052         0.208787
 C        -0.243133         1.025328         1.060068
 C        -1.791413         0.850757         0.532457
 C        -1.941855         1.705286         1.850544
 C        -0.651841         2.362136         1.505164
 O        -2.964273         2.269193         2.671409
 C        -2.270727         1.638254         3.832042
 C        -1.632751         0.542146         2.885043
 C        -0.148209         0.305814         2.452364
 H         0.701444         1.040445        -0.680831
 H        -1.804403         1.443117        -0.470088
 H        -2.252453        -0.056118         0.642893
 H        -0.936746         3.127788         0.855325
 H        -0.268274         2.860506         2.404355
 H        -1.570371         2.288494         4.159114
 H        -3.029055         1.319357         4.597360
 H        -2.267987        -0.287909         2.636933
 H         0.853390         0.432309         2.963706
 H         0.071075        -0.844062         2.203032
