19
Iteration:  2694
 O         0.602981         0.816969         0.074093
 C        -0.235661         0.960649         1.152739
 C        -1.673866         0.721823         0.557752
 C        -1.963966         1.698093         1.776299
 C        -0.699824         2.435134         1.592305
 O        -2.978901         2.231165         2.633395
 C        -2.240345         1.671824         3.833265
 C        -1.537882         0.720969         2.847426
 C        -0.078752         0.270343         2.466185
 H         1.459633         0.614094         0.375690
 H        -1.696054         1.192952        -0.416540
 H        -2.042497        -0.367948         0.643578
 H        -0.664521         3.260204         0.898586
 H        -0.291200         2.617445         2.612919
 H        -1.559546         2.562307         4.213956
 H        -2.895049         1.151024         4.507826
 H        -2.079763        -0.187207         2.727776
 H         0.887746         0.666408         2.967108
 H        -0.014349        -0.800587         2.231966
