19
Iteration:   279charge 0 multiplicity 1
 O         0.884360         0.650321         0.127818
 C        -0.196399         0.946951         0.993790
 C        -1.708404         1.103328         0.437386
 C        -1.976189         1.719769         1.916027
 C        -0.472084         2.323729         1.696551
 O        -2.958568         2.373418         2.648807
 C        -2.427786         1.562574         3.787231
 C        -1.648976         0.595182         2.836475
 C        -0.297683         0.161426         2.477548
 H         1.432900         1.502867         0.263731
 H        -1.673872         1.886726        -0.353376
 H        -2.365143         0.235908         0.318132
 H        -0.632499         3.146674         0.881285
 H         0.185476         2.606191         2.447434
 H        -1.801447         2.199106         4.411363
 H        -3.096950         0.961472         4.421692
 H        -2.330240        -0.279125         2.798737
 H         0.511786         0.496906         3.107774
 H        -0.373034        -0.875831         2.333453
