19
Iteration:  4364charge 0 multiplicity 1
 O         0.857812         0.800003         0.126846
 C        -0.213663         1.026840         1.047561
 C        -1.740006         0.842859         0.528269
 C        -2.003449         1.553501         1.853825
 C        -0.574922         2.333461         1.648007
 O        -3.032167         2.222569         2.609556
 C        -2.273572         1.794890         3.849947
 C        -1.600028         0.643164         2.985935
 C        -0.145719         0.223795         2.383464
 H         0.672070         1.251667        -0.711577
 H        -1.963679         1.442203        -0.412495
 H        -2.114118        -0.152890         0.172520
 H        -0.817076         3.236762         0.817144
 H        -0.248536         2.628545         2.633043
 H        -1.667146         2.637036         4.117485
 H        -2.928752         1.314489         4.614968
 H        -2.332967        -0.203616         3.097590
 H         0.736255         0.608593         2.963839
 H         0.011441        -0.929509         2.164913
