19
Iteration:  1581
 O         0.784801         0.870798         0.123048
 C        -0.231834         0.972917         1.082465
 C        -1.841068         0.881998         0.564750
 C        -1.940908         1.714667         1.864455
 C        -0.541407         2.395242         1.591797
 O        -3.007236         2.174184         2.608362
 C        -2.286527         1.645955         3.848945
 C        -1.536530         0.670461         2.890420
 C        -0.151320         0.235653         2.415835
 H         0.807918        -0.025531        -0.151388
 H        -1.865544         1.312602        -0.440346
 H        -2.328338        -0.093595         0.451722
 H        -0.591939         3.066081         0.640596
 H         0.154454         2.622481         2.403302
 H        -1.779303         2.416228         4.338567
 H        -3.008517         1.211905         4.532595
 H        -2.248879        -0.144320         2.735899
 H         0.689669         0.753793         2.994190
 H         0.021819        -0.814434         2.488412
