19
Iteration:  3724
 O         0.853631         0.740311         0.246896
 C        -0.228511         0.970395         1.094983
 C        -1.805886         0.830122         0.553921
 C        -2.061028         1.675493         1.714126
 C        -0.638066         2.424487         1.575560
 O        -2.983991         2.179424         2.706301
 C        -2.168046         1.697677         3.762083
 C        -1.561490         0.634955         2.838888
 C        -0.202328         0.276384         2.445563
 H         0.979850         1.402655        -0.430701
 H        -1.696750         1.477858        -0.399256
 H        -2.414186        -0.046685         0.342331
 H        -0.741963         3.097457         0.719336
 H        -0.218577         2.923959         2.567786
 H        -1.577434         2.482338         4.231220
 H        -2.773433         1.362024         4.627071
 H        -2.293067        -0.205984         2.850684
 H         0.656521         0.748745         3.033993
 H         0.086572        -0.861117         2.190132
