19
Iteration:  1674charge 0 multiplicity 1
 O         0.950688         1.000280         0.163298
 C        -0.198128         0.942007         1.029809
 C        -1.905762         0.807026         0.410704
 C        -1.913472         1.580988         1.881218
 C        -0.677348         2.387385         1.468743
 O        -2.941099         2.338294         2.711940
 C        -2.270045         1.646878         3.867492
 C        -1.642683         0.577255         2.976459
 C        -0.178567         0.160412         2.449921
 H         1.131981         0.113811        -0.293438
 H        -2.200238         1.683762        -0.296355
 H        -2.419729        -0.223482         0.188531
 H        -0.967378         3.116673         0.716275
 H        -0.088734         2.888403         2.248639
 H        -1.444348         2.294333         4.332388
 H        -3.095114         1.438797         4.579418
 H        -2.311883        -0.320344         2.807640
 H         0.611448         0.596375         3.083705
 H         0.007734        -0.998904         2.420937
