19
Iteration:   401charge 0 multiplicity 1
 O         0.891968         0.859188         0.197370
 C        -0.256360         0.902716         1.026242
 C        -1.660876         1.015746         0.506602
 C        -1.874902         1.719920         1.837740
 C        -0.475821         2.385724         1.639269
 O        -3.003765         2.341618         2.645407
 C        -2.294362         1.581417         3.833695
 C        -1.730491         0.590554         2.820217
 C        -0.320539         0.072051         2.443624
 H         0.727860         0.221228        -0.529776
 H        -1.918294         1.583578        -0.389727
 H        -2.250739         0.058119         0.485778
 H        -0.330374         3.196344         0.855718
 H         0.080015         2.785170         2.451956
 H        -1.707001         2.343791         4.354565
 H        -3.061969         1.238281         4.511088
 H        -2.590073        -0.074291         2.682337
 H         0.359875         0.418608         3.235993
 H        -0.216096        -0.974765         2.370487
