19
Iteration:   910
 O         0.882955         0.594091         0.249785
 C        -0.188231         1.028270         1.076687
 C        -1.869855         1.063043         0.463339
 C        -1.931464         1.637018         1.838681
 C        -0.660803         2.442533         1.607014
 O        -2.898614         2.325883         2.712529
 C        -2.280923         1.580318         3.751044
 C        -1.668100         0.507816         2.865254
 C        -0.156144         0.262482         2.406789
 H         0.918845         1.121707        -0.519451
 H        -1.851443         1.820369        -0.332846
 H        -2.506163         0.250747         0.111014
 H        -0.754054         3.134891         0.842328
 H        -0.116160         2.861238         2.559829
 H        -1.615612         2.185583         4.401289
 H        -3.090778         1.217103         4.376300
 H        -2.374224        -0.276404         2.623721
 H         0.641652         0.756723         2.977441
 H         0.009190        -0.837107         2.266044
