19
Iteration:  1918
 O         0.853358         0.902439         0.241466
 C        -0.338721         1.027211         0.997133
 C        -1.807376         0.910561         0.549837
 C        -1.937180         1.589981         1.899374
 C        -0.592050         2.467463         1.443010
 O        -2.887005         2.283311         2.693920
 C        -2.315620         1.564776         3.822616
 C        -1.617841         0.500279         2.906168
 C        -0.152963         0.274713         2.381708
 H         1.056288        -0.023734         0.147154
 H        -1.888302         1.523611        -0.369512
 H        -2.158011        -0.199777         0.538940
 H        -1.191553         3.021932         0.798896
 H         0.086042         2.850960         2.116266
 H        -1.612928         1.951464         4.528253
 H        -3.176579         1.336193         4.291316
 H        -2.200930        -0.355435         2.623360
 H         0.587767         0.894483         3.041813
 H         0.119275        -0.761298         2.123410
