19
Iteration:  1154charge 0 multiplicity 1
 O         0.901585         0.740579         0.312545
 C        -0.290200         0.988624         1.013885
 C        -1.693951         0.899077         0.398493
 C        -2.031978         1.544323         1.885472
 C        -0.707904         2.482613         1.492666
 O        -2.916413         2.279202         2.718186
 C        -2.173405         1.698246         3.863440
 C        -1.682419         0.579553         2.926205
 C        -0.203029         0.226863         2.326319
 H         0.698772         0.752907        -0.675935
 H        -1.923573         1.705239        -0.292215
 H        -2.059649        -0.083544         0.114701
 H        -1.037964         3.347698         0.827887
 H        -0.185271         3.020549         2.341252
 H        -1.433285         2.364398         4.102440
 H        -2.912468         1.435942         4.673191
 H        -2.293714        -0.333505         3.090500
 H         0.621966         0.490033         2.985506
 H         0.099357        -0.831541         2.271681
