19
Iteration:   260
 O         0.778895         0.667839         0.217432
 C        -0.250428         0.964472         1.130877
 C        -1.742934         1.115008         0.466325
 C        -1.834903         1.751255         1.816155
 C        -0.448367         2.397193         1.661108
 O        -2.984170         2.241248         2.615889
 C        -2.409823         1.637089         3.829177
 C        -1.727020         0.589275         2.829140
 C        -0.189728         0.049681         2.357748
 H         1.249826         1.516893         0.007412
 H        -1.466056         1.834540        -0.307862
 H        -2.364642         0.197979         0.273249
 H        -0.153931         3.220604         0.936696
 H        -0.066993         2.697215         2.651780
 H        -1.587922         2.193797         4.390343
 H        -3.191823         1.418959         4.555168
 H        -2.505459        -0.068168         2.471896
 H         0.543895         0.588725         3.070162
 H        -0.000801        -0.984254         2.330560
