19
Iteration:  3063charge 0 multiplicity 1
 O         0.878393         0.802506         0.263862
 C        -0.321065         0.960797         1.000899
 C        -1.744679         0.908343         0.444702
 C        -1.985069         1.683540         1.824633
 C        -0.628708         2.370626         1.504074
 O        -3.109616         2.149023         2.713806
 C        -2.149808         1.717364         3.880482
 C        -1.618352         0.639728         2.898336
 C        -0.140470         0.200530         2.428230
 H         1.064043         1.529004        -0.299558
 H        -1.707581         1.400863        -0.489031
 H        -2.260427        -0.034050         0.340042
 H        -0.776585         3.069222         0.627612
 H         0.204980         2.779099         2.168244
 H        -1.711394         2.688910         4.049612
 H        -2.637830         1.299222         4.755442
 H        -2.151831        -0.329379         2.934765
 H         0.787262         0.682301         2.974638
 H        -0.122038        -0.868018         2.327301
