19
Iteration:  2107charge 0 multiplicity 1
 O         0.865305         0.986125         0.062806
 C        -0.219796         0.989478         1.041424
 C        -1.800705         0.866200         0.629558
 C        -1.879370         1.712345         1.855236
 C        -0.586433         2.409224         1.596027
 O        -3.073798         2.184610         2.691558
 C        -2.275918         1.658110         3.773320
 C        -1.601849         0.600962         2.905868
 C        -0.175517         0.118218         2.410339
 H         0.939464         0.004917        -0.183855
 H        -1.811289         1.490291        -0.308068
 H        -2.145187        -0.192481         0.358115
 H        -0.791595         3.204237         0.838571
 H        -0.070768         2.856838         2.439636
 H        -1.624612         2.397381         4.204117
 H        -2.841374         1.306710         4.653475
 H        -2.397542        -0.152348         2.856751
 H         0.805012         0.294300         3.045428
 H        -0.313006        -0.966102         2.283844
