19
Iteration:   892charge 0 multiplicity 1
 O         0.866729         0.748422         0.240502
 C        -0.256312         0.950064         0.982781
 C        -1.867746         1.051220         0.476221
 C        -1.938457         1.676762         1.842234
 C        -0.516107         2.341263         1.566036
 O        -2.883696         2.311473         2.605902
 C        -2.339000         1.573426         3.936439
 C        -1.630356         0.605856         2.846682
 C        -0.227355         0.142909         2.451052
 H         1.039537         1.524309        -0.241577
 H        -1.936919         1.654588        -0.421314
 H        -2.330892         0.084920         0.385717
 H        -0.745446         3.162818         0.817035
 H         0.066613         2.689232         2.342993
 H        -1.728308         2.440966         4.355841
 H        -3.151637         1.176626         4.604895
 H        -2.189398        -0.329830         2.824384
 H         0.538582         0.640509         3.078441
 H        -0.044030        -0.885651         2.295259
