19
Iteration:  4423
 O         0.932773         0.745990         0.273458
 C        -0.283697         0.976379         0.971933
 C        -1.831127         0.894545         0.451935
 C        -1.977429         1.656227         1.845958
 C        -0.632964         2.352042         1.411002
 O        -2.980211         2.240353         2.754866
 C        -2.239175         1.586809         3.804950
 C        -1.619536         0.626759         2.867482
 C        -0.154269         0.333763         2.484049
 H         0.986548         1.420294        -0.366483
 H        -2.112859         1.501824        -0.374338
 H        -2.289743        -0.013263         0.545057
 H        -0.765276         3.114629         0.760746
 H        -0.214020         2.798427         2.328650
 H        -1.556678         2.341433         4.296217
 H        -2.867171         1.160601         4.732473
 H        -2.230558        -0.237604         2.747748
 H         0.556070         0.925913         3.054729
 H         0.052944        -0.699423         2.576651
