19
Iteration:  4580charge 0 multiplicity 1
 O         0.901772         0.833843         0.229678
 C        -0.290973         0.992173         1.048502
 C        -1.851029         0.871231         0.585512
 C        -1.962076         1.590646         1.843625
 C        -0.630795         2.374806         1.458660
 O        -2.948598         2.304463         2.663151
 C        -2.291380         1.612343         3.813152
 C        -1.603766         0.581199         2.885358
 C        -0.114894         0.260205         2.420839
 H         0.772376         1.582446        -0.412722
 H        -2.068279         1.384420        -0.311340
 H        -2.249877        -0.170287         0.361709
 H        -0.832315         2.983333         0.626727
 H        -0.016781         2.835703         2.200732
 H        -1.554401         2.304183         4.410227
 H        -2.861172         1.199623         4.660881
 H        -2.146996        -0.378629         2.932123
 H         0.637744         0.718209         3.005936
 H        -0.050705        -0.843358         2.376216
