19
Iteration:  4518
 O         0.818007         0.715588         0.260331
 C        -0.277723         1.001697         1.023917
 C        -1.776390         0.945824         0.483758
 C        -1.958034         1.559505         1.815333
 C        -0.687047         2.456374         1.613867
 O        -2.984920         2.156929         2.602440
 C        -2.164619         1.724049         3.826638
 C        -1.587688         0.563129         2.932344
 C        -0.180123         0.286645         2.406465
 H         0.860631         1.350717        -0.514540
 H        -1.764528         1.700756        -0.369378
 H        -2.169842        -0.063125         0.363277
 H        -0.945153         3.336215         0.868358
 H        -0.080629         2.830717         2.454089
 H        -1.521161         2.568845         4.128973
 H        -2.773656         1.402425         4.648903
 H        -2.230280        -0.349254         2.992837
 H         0.656267         0.791593         2.964062
 H         0.154143        -0.768331         2.234834
