19
Iteration:  2011charge 0 multiplicity 1
 O         0.902261         0.993224         0.186764
 C        -0.250939         0.920594         1.025552
 C        -1.838024         0.842941         0.470859
 C        -1.951869         1.634052         1.872469
 C        -0.686729         2.334617         1.548210
 O        -2.939481         2.305076         2.683658
 C        -2.336467         1.634962         3.900014
 C        -1.557652         0.616273         2.930552
 C        -0.121418         0.184167         2.352609
 H         0.979094         0.157449        -0.338468
 H        -1.839880         1.506940        -0.369924
 H        -2.261500        -0.103734         0.288820
 H        -0.752985         2.971493         0.622199
 H        -0.151318         2.785212         2.456101
 H        -1.675316         2.224755         4.565596
 H        -3.221637         1.269685         4.524528
 H        -2.338540        -0.173005         2.796972
 H         0.718221         0.721457         2.741638
 H        -0.000657        -0.913914         2.387038
