19
Iteration:  3761charge 0 multiplicity 1
 O         0.890364         0.745781         0.160880
 C        -0.204159         1.029689         1.038769
 C        -1.809346         0.842143         0.563889
 C        -1.977246         1.582630         1.834086
 C        -0.659503         2.454363         1.540110
 O        -2.955089         2.216803         2.642699
 C        -2.315272         1.762588         3.851944
 C        -1.589816         0.596964         2.957122
 C        -0.155327         0.189027         2.379634
 H         0.915470         1.535963        -0.319797
 H        -1.806034         1.468765        -0.382191
 H        -2.168202        -0.183870         0.373228
 H        -0.799637         3.284956         0.752613
 H        -0.112346         2.915789         2.380196
 H        -1.713849         2.641357         4.226545
 H        -3.161804         1.395876         4.565670
 H        -2.163444        -0.316660         3.090938
 H         0.641406         0.398025         3.079751
 H        -0.125915        -0.818196         2.190586
