19
Iteration:  4400charge 0 multiplicity 1
 O         0.857932         0.708801         0.230104
 C        -0.251006         1.069743         1.099954
 C        -1.782133         0.860092         0.551148
 C        -1.978080         1.652407         1.862046
 C        -0.608767         2.469541         1.493099
 O        -3.042495         2.138676         2.673360
 C        -2.200700         1.701076         3.831334
 C        -1.616207         0.656916         2.887239
 C        -0.154357         0.181263         2.333582
 H         1.028606         1.493550        -0.370524
 H        -1.740498         1.497230        -0.344123
 H        -2.115964        -0.090160         0.513969
 H        -0.740126         3.080051         0.593303
 H        -0.166135         3.172227         2.246312
 H        -1.576269         2.573174         4.202341
 H        -2.858330         1.350557         4.785961
 H        -2.366168        -0.117440         2.820253
 H         0.611358         0.493819         3.045943
 H        -0.091620        -0.896256         2.155400
