19
Iteration:  3070
 O         0.925041         0.778453         0.245563
 C        -0.284834         0.940554         0.999380
 C        -1.742704         0.852272         0.463198
 C        -2.035074         1.700591         1.804867
 C        -0.629175         2.367854         1.527311
 O        -3.108615         2.118332         2.726567
 C        -2.155489         1.724043         3.902381
 C        -1.604187         0.697050         2.911400
 C        -0.193214         0.242689         2.402402
 H         1.069593         1.574811        -0.325701
 H        -1.843207         1.654326        -0.479928
 H        -2.218510        -0.094604         0.223716
 H        -0.529631         3.099588         0.730073
 H        -0.011340         2.917174         2.260155
 H        -1.504088         2.567927         4.080486
 H        -2.744772         1.325154         4.780575
 H        -2.204630        -0.230040         2.986010
 H         0.727095         0.599724         2.724194
 H        -0.134687        -0.853698         2.144868
