19
Iteration:   793
 O         0.852891         0.697520         0.143209
 C        -0.219646         0.974151         1.070528
 C        -1.759284         0.994591         0.534079
 C        -1.954977         1.727502         1.838733
 C        -0.538387         2.460067         1.545689
 O        -2.957529         2.238476         2.711680
 C        -2.316658         1.597405         3.845892
 C        -1.663627         0.683843         2.802513
 C        -0.271331         0.126476         2.417430
 H         1.650670         1.179252         0.482930
 H        -1.748854         1.366984        -0.457838
 H        -2.309287         0.080192         0.506248
 H        -0.547783         3.343102         0.662618
 H         0.020878         2.860216         2.438758
 H        -1.682179         2.274985         4.433413
 H        -2.910162         1.033077         4.559638
 H        -2.322089        -0.119385         2.528581
 H         0.629126         0.340506         3.003353
 H        -0.483345        -0.885479         2.304351
