19
Iteration:  2936charge 0 multiplicity 1
 O         0.875223         0.751307         0.161862
 C        -0.233155         0.960960         1.017041
 C        -1.678464         0.865952         0.452155
 C        -2.011115         1.558512         1.835340
 C        -0.720976         2.431947         1.558523
 O        -3.021240         2.245975         2.731325
 C        -2.231398         1.714826         3.871810
 C        -1.555862         0.688454         2.915379
 C        -0.207254         0.243357         2.447736
 H         1.026767         1.504925        -0.514020
 H        -1.937477         1.485823        -0.519604
 H        -2.047196        -0.224142         0.048135
 H        -0.722900         3.058097         0.656726
 H        -0.283540         2.855502         2.473911
 H        -1.616965         2.584737         4.305498
 H        -2.810812         1.144168         4.571015
 H        -2.157340        -0.229564         2.871255
 H         0.617522         0.368171         3.106870
 H        -0.135272        -0.855163         2.340539
