19
Iteration:  3220
 O         0.909971         0.833476         0.204782
 C        -0.265703         0.983561         0.998732
 C        -1.717628         0.803611         0.456761
 C        -1.996364         1.628330         1.806816
 C        -0.551882         2.376451         1.512736
 O        -3.018877         2.242887         2.734698
 C        -2.245688         1.672539         3.876747
 C        -1.660016         0.618156         2.931643
 C        -0.242931         0.256648         2.397933
 H         0.856393         1.467704        -0.551578
 H        -1.975982         1.349919        -0.406458
 H        -2.241828        -0.168733         0.506752
 H        -0.715600         3.172893         0.718393
 H        -0.094780         2.706041         2.442533
 H        -1.489461         2.454209         4.102641
 H        -2.844259         1.436363         4.760459
 H        -2.377568        -0.254465         3.012169
 H         0.643150         0.600346         3.106712
 H         0.083942        -0.840922         2.303475
