19
Iteration:  3510
 O         0.843287         0.688627         0.225294
 C        -0.282845         0.979283         1.016073
 C        -1.805032         0.940660         0.624681
 C        -1.927393         1.687771         1.868602
 C        -0.551997         2.549788         1.559451
 O        -3.040265         2.146247         2.646420
 C        -2.301547         1.725291         3.806265
 C        -1.568442         0.554422         2.852188
 C        -0.083782         0.189952         2.408591
 H         0.846514         1.249197        -0.622452
 H        -1.942904         1.415667        -0.364731
 H        -2.282018         0.007911         0.411408
 H        -0.917073         3.162025         0.714721
 H        -0.183486         3.080823         2.409783
 H        -1.786982         2.514279         4.283042
 H        -3.028344         1.357400         4.515317
 H        -2.205093        -0.333806         2.702274
 H         0.724628         0.868503         2.814093
 H         0.120061        -0.995697         2.366472
