19
Iteration:  3344
 O         0.932974         0.720793         0.120066
 C        -0.218409         0.984980         1.039279
 C        -1.760074         0.862847         0.479299
 C        -1.983889         1.689691         1.802581
 C        -0.673042         2.444915         1.559610
 O        -2.990024         2.244802         2.749202
 C        -2.374122         1.647854         3.920612
 C        -1.573380         0.672993         2.858016
 C        -0.123906         0.226238         2.447083
 H         0.789302         1.164955        -0.732822
 H        -2.080040         1.190558        -0.501709
 H        -2.262772         0.009973         0.513990
 H        -0.801941         3.157130         0.801279
 H         0.046374         2.757263         2.328869
 H        -1.702303         2.327236         4.424514
 H        -3.185671         1.236523         4.620256
 H        -2.202294        -0.198698         2.719750
 H         0.770671         0.737736         2.945696
 H        -0.033356        -0.967789         2.498922
