19
Iteration:  2116charge 0 multiplicity 1
 O         0.833723         1.010615         0.089085
 C        -0.213482         0.988897         1.098576
 C        -1.738573         0.902956         0.611061
 C        -1.934614         1.597493         1.888758
 C        -0.614090         2.449103         1.531196
 O        -2.987750         2.254131         2.630690
 C        -2.249937         1.591404         3.819003
 C        -1.650985         0.563907         2.917388
 C        -0.184661         0.123376         2.471990
 H         0.910855         0.149387        -0.446580
 H        -1.990553         1.595857        -0.293189
 H        -2.264421        -0.166037         0.501710
 H        -0.862005         3.057317         0.639825
 H        -0.257901         3.078050         2.282957
 H        -1.419001         2.395730         3.945390
 H        -2.857034         1.379671         4.685855
 H        -2.317905        -0.277681         2.714950
 H         0.771215         0.040713         3.128198
 H        -0.271578        -0.864256         2.074121
