19
Iteration:   414charge 0 multiplicity 1
 O         0.927247         0.844313         0.217722
 C        -0.157092         0.950716         1.114447
 C        -1.765405         0.944260         0.527761
 C        -1.960955         1.791692         1.852396
 C        -0.472520         2.286052         1.577292
 O        -2.971102         2.394007         2.651303
 C        -2.365822         1.539470         3.898628
 C        -1.754475         0.617234         2.798755
 C        -0.304689         0.145217         2.386826
 H         0.657533         0.455586        -0.639600
 H        -1.534884         1.616231        -0.323857
 H        -2.216862        -0.032865         0.233584
 H        -0.517457         2.826914         0.664727
 H         0.155849         2.545463         2.485888
 H        -1.418797         1.998540         4.295932
 H        -3.105928         1.206137         4.649891
 H        -2.367751        -0.225619         2.431487
 H         0.573035         0.651647         2.893727
 H        -0.212798        -0.919052         2.339497
