19
Iteration:  4142charge 0 multiplicity 1
 O         0.785759         0.687770         0.176203
 C        -0.229498         1.001648         1.014354
 C        -1.697350         0.865312         0.458706
 C        -1.947044         1.602100         1.864392
 C        -0.699597         2.458721         1.492866
 O        -2.936790         2.256369         2.669737
 C        -2.413334         1.640180         3.874705
 C        -1.529964         0.656578         2.986197
 C        -0.103253         0.282617         2.445032
 H         0.848431         1.336877        -0.477355
 H        -1.835568         1.412071        -0.450028
 H        -2.019514        -0.175882         0.258401
 H        -0.727144         3.198759         0.678172
 H        -0.114080         2.962113         2.293011
 H        -1.815712         2.371288         4.509387
 H        -3.085098         1.243304         4.607430
 H        -2.233804        -0.126238         2.836849
 H         0.865855         0.571679         2.990130
 H        -0.087697        -0.772017         2.388258
