19
Iteration:  2775charge 0 multiplicity 1
 O         0.764116         0.748648         0.109178
 C        -0.217896         1.073159         1.082287
 C        -1.663472         0.726894         0.543373
 C        -1.987250         1.629285         1.853824
 C        -0.690222         2.481720         1.497513
 O        -2.954582         2.310012         2.668883
 C        -2.193083         1.624902         3.855256
 C        -1.632662         0.530669         2.874096
 C        -0.197000         0.318280         2.467458
 H         1.154809         1.558137        -0.248466
 H        -1.740041         1.112429        -0.503833
 H        -2.072379        -0.256525         0.588205
 H        -1.047276         3.250213         0.755432
 H        -0.194600         2.936201         2.385037
 H        -1.407372         2.321894         4.280014
 H        -2.978681         1.441480         4.751113
 H        -2.319046        -0.366629         2.865256
 H         0.619568         0.507018         3.181815
 H        -0.051575        -0.843395         2.209651
