19
Iteration:  4940
 O         0.821376         0.902221         0.250876
 C        -0.267987         1.006864         1.075003
 C        -1.802641         0.741149         0.504652
 C        -1.970643         1.644718         1.768005
 C        -0.581423         2.465895         1.417370
 O        -2.958819         2.181411         2.714696
 C        -2.219563         1.637801         3.858092
 C        -1.648693         0.624187         2.865842
 C        -0.178720         0.337419         2.456066
 H         0.776116         0.078019        -0.350984
 H        -1.904074         1.215188        -0.474958
 H        -2.177637        -0.275909         0.670614
 H        -0.669562         3.139737         0.709518
 H        -0.047333         2.860462         2.235886
 H        -1.389290         2.331918         4.201126
 H        -2.852468         1.236284         4.789391
 H        -2.212877        -0.311464         2.829031
 H         0.580934         0.880126         3.004905
 H         0.067583        -0.761270         2.399395
