19
Iteration:  2782
 O         0.770999         0.774504         0.106752
 C        -0.238789         1.057367         1.037566
 C        -1.667908         0.741862         0.503608
 C        -1.935292         1.613883         1.858967
 C        -0.652163         2.466046         1.480342
 O        -2.923664         2.288224         2.691439
 C        -2.276275         1.663201         3.873153
 C        -1.663598         0.524374         2.928646
 C        -0.220996         0.289540         2.485189
 H         1.063549         1.537089        -0.336886
 H        -1.809981         1.263929        -0.399135
 H        -1.811690        -0.348512         0.640673
 H        -1.001838         3.149572         0.705370
 H        -0.091284         3.036139         2.244967
 H        -1.441263         2.242404         4.342128
 H        -2.940841         1.374321         4.656350
 H        -2.246391        -0.380720         2.943864
 H         0.590596         0.765590         3.055690
 H        -0.072418        -0.702317         2.167182
