19
Iteration:  1629
 O         0.856353         0.815872         0.140069
 C        -0.240133         1.050230         1.015645
 C        -1.706658         0.872381         0.468230
 C        -1.971587         1.647779         1.782435
 C        -0.681306         2.456903         1.584484
 O        -3.048128         2.228800         2.716522
 C        -2.144492         1.668039         3.916865
 C        -1.642731         0.585813         2.873197
 C        -0.196939         0.244681         2.388266
 H         1.150079        -0.147327         0.258421
 H        -1.970227         1.169832        -0.612728
 H        -2.222598        -0.110777         0.690791
 H        -0.741182         3.184534         0.836596
 H        -0.202713         2.884330         2.458333
 H        -1.385010         2.452176         4.267926
 H        -2.811071         1.310828         4.712129
 H        -2.362366        -0.245987         2.943373
 H         0.678381         0.578285         3.029621
 H        -0.122178        -0.872212         2.157330
