19
Iteration:  2819charge 0 multiplicity 1
 O         0.892888         0.744799         0.210012
 C        -0.250444         0.961724         1.054921
 C        -1.990913         0.891680         0.591150
 C        -1.959742         1.689244         1.790749
 C        -0.637702         2.382453         1.575839
 O        -3.029974         2.249480         2.665174
 C        -2.317253         1.598341         3.768177
 C        -1.491050         0.709690         2.913596
 C         0.003995         0.297693         2.414219
 H         0.681986         1.219574        -0.611580
 H        -2.073154         1.255473        -0.432867
 H        -2.475164        -0.027224         0.582364
 H        -0.582145         3.033731         0.648987
 H        -0.026552         2.783168         2.420598
 H        -1.707366         2.362630         4.345123
 H        -3.069935         0.983237         4.520548
 H        -1.996299        -0.308587         2.831563
 H         0.973982         0.534920         2.877849
 H         0.123867        -0.892892         2.316350
