19
Iteration:   117charge 0 multiplicity 1
 O         0.849744         0.587706         0.189804
 C        -0.194574         1.045117         1.042574
 C        -1.782740         1.146471         0.472482
 C        -1.920431         1.708110         1.875384
 C        -0.375857         2.412015         1.762803
 O        -2.953359         2.304222         2.632118
 C        -2.411550         1.600888         3.771819
 C        -1.753143         0.545585         2.763100
 C        -0.300969         0.133222         2.405728
 H         1.597120         1.154138         0.334533
 H        -1.737806         1.936274        -0.310840
 H        -2.413089         0.262020         0.290794
 H        -0.286247         3.322085         1.035988
 H         0.071269         2.622494         2.695462
 H        -1.601963         2.156073         4.327365
 H        -3.189171         1.198382         4.459515
 H        -2.339523        -0.336715         2.526074
 H         0.598250         0.415612         3.076520
 H        -0.235152        -0.883609         2.084886
