19
Iteration:  2317
 O         0.802857         0.801991         0.232109
 C        -0.257916         0.991663         1.051431
 C        -1.813727         0.987135         0.453982
 C        -1.940655         1.610598         1.843691
 C        -0.588435         2.495118         1.558751
 O        -2.990172         2.212029         2.661991
 C        -2.230172         1.649061         3.821216
 C        -1.572977         0.531155         2.904032
 C        -0.143118         0.133660         2.474123
 H         0.682291         1.297061        -0.632567
 H        -1.835372         1.684128        -0.435634
 H        -2.429065         0.079436         0.144421
 H        -0.831053         3.147006         0.750067
 H        -0.121121         3.073294         2.337846
 H        -1.445069         2.289440         4.308675
 H        -3.020802         1.405842         4.631782
 H        -2.213116        -0.373131         2.745161
 H         0.636251         0.589668         3.042822
 H         0.078326        -0.983975         2.323115
