19
Iteration:  1563
 O         0.853170         0.880271         0.102531
 C        -0.249596         0.969833         1.033975
 C        -1.690819         0.825614         0.569833
 C        -1.920750         1.716632         1.823407
 C        -0.604924         2.406988         1.456188
 O        -3.002032         2.313265         2.742513
 C        -2.364261         1.598932         3.815788
 C        -1.627881         0.618151         2.907488
 C        -0.149396         0.202966         2.493086
 H         0.797400         0.089926        -0.393711
 H        -1.898526         1.240475        -0.453639
 H        -2.125234        -0.169623         0.753465
 H        -0.707868         3.175494         0.804867
 H        -0.280211         2.984397         2.302739
 H        -1.509564         2.251097         4.219702
 H        -2.946425         1.083804         4.604768
 H        -2.265814        -0.254831         2.950131
 H         0.736314         0.511093         3.111824
 H        -0.186743        -0.846265         2.183110
