19
Iteration:   551
 O         0.877572         0.759668         0.216668
 C        -0.261207         0.928381         1.049289
 C        -1.707257         0.906184         0.483270
 C        -1.968641         1.688323         1.799266
 C        -0.574778         2.388555         1.578427
 O        -2.904167         2.330154         2.701980
 C        -2.270894         1.633638         3.829490
 C        -1.668758         0.670011         2.844008
 C        -0.368324         0.143039         2.389808
 H         1.309753         1.589805         0.541969
 H        -1.849421         1.540263        -0.376426
 H        -2.016347        -0.117174         0.368558
 H        -0.464968         3.034847         0.723254
 H         0.006116         2.690490         2.366202
 H        -1.568732         2.276438         4.347705
 H        -2.938950         1.088366         4.464885
 H        -2.474927        -0.045887         2.669162
 H         0.513442         0.400933         3.014999
 H        -0.314433        -0.972810         2.298518
