19
Iteration:  3888
 O         0.816559         0.826914         0.189412
 C        -0.239549         0.956867         1.060919
 C        -1.760613         0.876591         0.517760
 C        -1.958298         1.570098         1.868191
 C        -0.607249         2.345152         1.527115
 O        -2.966093         2.239389         2.658278
 C        -2.337616         1.764465         3.812875
 C        -1.580088         0.604968         2.906894
 C        -0.165732         0.201125         2.443767
 H         0.838822         1.727833        -0.278462
 H        -1.899656         1.450330        -0.467822
 H        -2.078307        -0.137343         0.370660
 H        -0.722764         2.892924         0.663352
 H        -0.064904         2.963236         2.269442
 H        -1.603543         2.518328         4.219516
 H        -2.910918         1.539592         4.666970
 H        -2.281933        -0.252531         2.706613
 H         0.744787         0.591004         2.982118
 H         0.097151        -0.971657         2.458964
