19
Iteration:  1745
 O         0.860211         0.828330         0.115855
 C        -0.246438         1.017337         0.985522
 C        -1.813101         0.928907         0.519468
 C        -1.901505         1.629279         1.893828
 C        -0.553317         2.420581         1.548913
 O        -3.034582         2.179799         2.649570
 C        -2.304045         1.574809         3.915446
 C        -1.609395         0.650662         2.922500
 C        -0.191860         0.283846         2.421977
 H         1.001431        -0.162191        -0.032119
 H        -1.772026         1.622891        -0.269475
 H        -2.275761         0.004906         0.246460
 H        -0.711532         3.136442         0.682428
 H         0.014555         3.010915         2.318531
 H        -1.691533         2.486813         4.322309
 H        -2.853742         1.042220         4.726206
 H        -2.211788        -0.212688         2.673768
 H         0.617116         0.827358         2.973789
 H         0.044905        -0.729784         2.419595
