19
Iteration:  2196
 O         0.737152         0.835451         0.122435
 C        -0.322116         1.091442         1.049219
 C        -1.707958         0.993352         0.529294
 C        -1.866938         1.724471         1.879468
 C        -0.612687         2.463761         1.493047
 O        -3.005300         2.109491         2.622299
 C        -2.262014         1.551735         3.890537
 C        -1.559538         0.590060         2.955785
 C        -0.146887         0.210690         2.408364
 H         1.083417         0.021703         0.606409
 H        -1.708149         1.583191        -0.403817
 H        -2.195702        -0.058562         0.402609
 H        -0.849995         3.163736         0.687755
 H        -0.011769         2.933590         2.313604
 H        -1.625713         2.325858         4.350132
 H        -3.143068         1.382393         4.601231
 H        -2.157174        -0.337550         2.794331
 H         0.813023         0.478729         2.933766
 H        -0.241068        -0.894211         2.127010
