19
Iteration:  3648charge 0 multiplicity 1
 O         0.759724         0.713542         0.187877
 C        -0.206464         0.973343         1.076421
 C        -1.734531         0.885544         0.621321
 C        -1.908921         1.675108         1.814366
 C        -0.658528         2.445515         1.574909
 O        -3.027775         2.227524         2.623972
 C        -2.269335         1.624429         3.750247
 C        -1.552655         0.611753         2.913210
 C        -0.134753         0.316761         2.431512
 H         0.663451         1.288843        -0.582576
 H        -1.923170         1.349201        -0.389681
 H        -2.189036        -0.108124         0.469678
 H        -0.524001         3.147708         0.740129
 H         0.064050         2.701931         2.466646
 H        -1.602775         2.380478         4.274717
 H        -2.998664         1.112537         4.482703
 H        -2.292391        -0.204080         2.737770
 H         0.624510         0.822866         3.043178
 H        -0.014046        -0.722052         2.387872
