19
Iteration:  1862charge 0 multiplicity 1
 O         0.764367         0.868847         0.146755
 C        -0.258256         1.034100         1.058595
 C        -1.716920         0.978273         0.595789
 C        -1.925737         1.619268         1.915033
 C        -0.536894         2.411373         1.516667
 O        -3.054234         2.139900         2.615750
 C        -2.297168         1.697641         3.877442
 C        -1.609047         0.514446         2.898920
 C        -0.108091         0.252037         2.387445
 H         0.773479        -0.003585        -0.250107
 H        -1.806298         1.575304        -0.326774
 H        -2.111492        -0.083011         0.328902
 H        -0.601521         3.197427         0.805865
 H        -0.010958         2.833123         2.335347
 H        -1.588364         2.431041         4.225148
 H        -3.009680         1.479355         4.614548
 H        -2.419307        -0.215300         2.768340
 H         0.644595         0.591500         3.114646
 H         0.127973        -0.809228         1.988603
