19
Iteration:  3980charge 0 multiplicity 1
 O         0.835033         0.675909         0.184977
 C        -0.273333         1.032240         1.067471
 C        -1.757923         0.847345         0.524960
 C        -1.950857         1.644307         1.814257
 C        -0.584064         2.475867         1.599352
 O        -3.076083         2.294088         2.639196
 C        -2.290203         1.615802         3.809549
 C        -1.547619         0.588919         2.924461
 C        -0.115972         0.301779         2.402097
 H         0.755849         1.088654        -0.697208
 H        -1.857558         1.248709        -0.434598
 H        -2.191063        -0.208929         0.577888
 H        -0.795440         3.434436         0.973020
 H         0.054058         2.758438         2.416467
 H        -1.808499         2.347151         4.257972
 H        -2.993342         1.299001         4.660445
 H        -2.013445        -0.378373         2.803580
 H         0.730579         0.739991         3.040269
 H         0.151003        -0.706890         2.311711
