19
Iteration:  4222charge 0 multiplicity 1
 O         0.898457         0.778384         0.154137
 C        -0.186998         1.030973         1.018297
 C        -1.656358         0.769978         0.481077
 C        -2.011171         1.590304         1.838030
 C        -0.663057         2.427184         1.567451
 O        -3.008785         2.253510         2.726024
 C        -2.305538         1.808108         3.845350
 C        -1.577086         0.604990         2.996117
 C        -0.197417         0.194303         2.370794
 H         0.682784         1.364870        -0.550637
 H        -2.012039         1.354744        -0.415899
 H        -2.140307        -0.237844         0.292652
 H        -0.881270         3.233078         0.820967
 H        -0.312476         2.745000         2.455524
 H        -1.435982         2.524764         4.054074
 H        -3.224312         1.481121         4.622384
 H        -2.334420        -0.213441         3.016174
 H         0.766506         0.261387         2.994339
 H        -0.226005        -0.915746         2.029525
