19
Iteration:  2951charge 0 multiplicity 1
 O         0.814887         0.670845         0.232189
 C        -0.281706         1.080572         1.042649
 C        -1.690149         0.839189         0.437896
 C        -1.993569         1.669817         1.784753
 C        -0.675717         2.391917         1.578463
 O        -3.039483         2.204893         2.694141
 C        -2.197702         1.660482         3.864286
 C        -1.566368         0.620653         2.886036
 C        -0.137291         0.294932         2.400281
 H         0.884865         1.343852        -0.452835
 H        -1.730785         1.523981        -0.391943
 H        -2.069821        -0.095993         0.325886
 H        -0.910346         3.346007         1.054199
 H        -0.025026         2.729318         2.407270
 H        -1.515856         2.395785         4.226747
 H        -2.986910         1.378136         4.634263
 H        -2.293779        -0.204255         3.072550
 H         0.665472         0.920286         2.812366
 H         0.021632        -0.830057         2.360450
