19
Iteration:   622
 O         0.771546         0.642504         0.130086
 C        -0.181599         1.004193         1.102310
 C        -1.647912         0.910426         0.482805
 C        -1.980758         1.705211         1.856696
 C        -0.502324         2.445143         1.643928
 O        -2.984371         2.330665         2.706122
 C        -2.431201         1.659728         3.838695
 C        -1.639492         0.637770         2.845521
 C        -0.205793         0.155801         2.354802
 H         1.545989         1.284406         0.095564
 H        -1.682366         1.575199        -0.439558
 H        -2.092545        -0.128887         0.269757
 H        -0.359175         3.068943         0.695820
 H        -0.110579         3.000174         2.597247
 H        -1.856674         2.402229         4.484855
 H        -3.312022         1.190477         4.375918
 H        -2.237346        -0.318881         2.762432
 H         0.708606         0.280713         2.994197
 H        -0.196278        -0.925696         2.089491
