19
Iteration:   505
 O         0.789847         0.752186         0.195872
 C        -0.253987         0.989460         1.077921
 C        -1.720817         1.023073         0.516573
 C        -1.911380         1.674809         1.838911
 C        -0.523777         2.349229         1.637505
 O        -2.952934         2.248977         2.557212
 C        -2.253926         1.688399         3.791715
 C        -1.668704         0.581551         2.912639
 C        -0.293576         0.123901         2.406274
 H         1.306766         1.517265         0.067384
 H        -1.589457         1.727003        -0.286087
 H        -2.362189         0.186516         0.366310
 H        -0.564441         3.033369         0.898734
 H        -0.008871         2.580019         2.605560
 H        -1.553555         2.430036         4.152243
 H        -3.090196         1.401146         4.449122
 H        -2.389794        -0.231908         3.003180
 H         0.550817         0.397760         3.001307
 H        -0.239048        -1.010035         2.310815
