19
Iteration:  4826charge 0 multiplicity 1
 O         0.976542         0.786837         0.203826
 C        -0.295465         0.974268         1.004790
 C        -1.763787         0.814838         0.475910
 C        -1.917589         1.691405         1.917575
 C        -0.775657         2.427762         1.488184
 O        -2.974638         2.278955         2.683054
 C        -2.330501         1.597725         3.943820
 C        -1.548558         0.624796         2.912445
 C        -0.148753         0.292505         2.353495
 H         0.739025         0.091390        -0.498798
 H        -1.969652         1.606355        -0.281027
 H        -2.139554        -0.217794         0.516939
 H        -0.990567         3.151228         0.632263
 H        -0.263161         2.993305         2.237743
 H        -1.665828         2.446519         4.412573
 H        -3.183799         1.225569         4.516030
 H        -2.154296        -0.339358         2.834960
 H         0.716172         0.865940         2.816238
 H         0.189519        -0.733021         2.274536
