19
Iteration:  2298charge 0 multiplicity 1
 O         0.919359         0.726615         0.173523
 C        -0.253777         1.012411         1.002255
 C        -1.720512         0.927889         0.499842
 C        -2.000535         1.660251         1.836602
 C        -0.637486         2.320609         1.578582
 O        -3.035047         2.186670         2.777158
 C        -2.214464         1.645674         3.881692
 C        -1.661764         0.641412         2.865761
 C        -0.225479         0.332036         2.312630
 H         1.194993         1.562133        -0.233018
 H        -1.887867         1.503023        -0.422206
 H        -2.027322        -0.061120         0.375767
 H        -0.672586         3.181481         0.839495
 H         0.037329         2.552762         2.531856
 H        -1.597620         2.457410         4.235461
 H        -2.794867         1.225238         4.696677
 H        -2.405907        -0.157807         2.793699
 H         0.601923         0.666416         2.904848
 H        -0.093552        -0.812568         2.142430
