19
Iteration:  4981charge 0 multiplicity 1
 O         0.804777         0.776933         0.082240
 C        -0.239263         1.050580         0.979791
 C        -1.719943         0.858276         0.519466
 C        -1.956416         1.547844         1.849716
 C        -0.658292         2.449809         1.580500
 O        -3.035552         2.175743         2.621996
 C        -2.293457         1.678701         3.900705
 C        -1.500623         0.685945         2.980040
 C        -0.111662         0.340653         2.431475
 H         0.997481        -0.151276         0.180577
 H        -1.846608         1.469582        -0.319003
 H        -2.209439        -0.129227         0.331717
 H        -0.939084         3.201168         0.751733
 H        -0.236688         2.809613         2.500618
 H        -1.843216         2.512185         4.446352
 H        -3.057747         1.256460         4.574613
 H        -2.211634        -0.203701         2.972349
 H         0.805285         0.621795         2.964284
 H        -0.069699        -0.747205         2.223908
