19
Iteration:  1691charge 0 multiplicity 1
 O         0.897098         0.924628         0.139168
 C        -0.263645         1.034143         0.956370
 C        -1.762693         0.904262         0.526841
 C        -2.035314         1.581963         1.838545
 C        -0.656463         2.320127         1.578171
 O        -2.922426         2.230674         2.671365
 C        -2.265638         1.712205         3.872789
 C        -1.615747         0.574833         2.891235
 C        -0.194729         0.243064         2.447267
 H         0.838788        -0.009469        -0.250885
 H        -1.776478         1.389058        -0.384243
 H        -2.181555        -0.058594         0.562400
 H        -0.730904         3.088744         0.786685
 H        -0.081549         2.637641         2.456426
 H        -1.658505         2.452720         4.393038
 H        -2.962784         1.250129         4.580672
 H        -2.217577        -0.301097         2.968434
 H         0.685633         0.618065         3.021629
 H        -0.039093        -0.769867         2.360457
