19
Iteration:  1360charge 0 multiplicity 1
 O         0.748922         0.784937         0.056983
 C        -0.242472         1.002807         1.031069
 C        -1.756404         0.927157         0.515508
 C        -1.966465         1.665769         1.821801
 C        -0.547378         2.376435         1.594837
 O        -3.062235         2.207998         2.622563
 C        -2.268384         1.696201         3.810784
 C        -1.530225         0.616117         2.968250
 C        -0.161641         0.147806         2.528990
 H         1.594693         1.139720         0.276815
 H        -1.907268         1.727661        -0.238884
 H        -2.220623        -0.040397         0.279366
 H        -0.632460         3.232223         0.866037
 H         0.084741         2.912483         2.266485
 H        -1.529328         2.477993         4.071657
 H        -3.095345         1.525100         4.523384
 H        -2.251251        -0.251488         2.889893
 H         0.623379         0.407993         3.251601
 H        -0.047424        -0.991814         2.480634
