19
Iteration:  2230charge 0 multiplicity 1
 O         0.816569         0.862324        -0.061259
 C        -0.236900         1.035062         0.968087
 C        -1.773253         0.881570         0.504154
 C        -1.957399         1.681663         1.815177
 C        -0.612530         2.328963         1.662591
 O        -2.992193         2.214686         2.726436
 C        -2.323538         1.643175         3.858804
 C        -1.629129         0.591958         2.895095
 C        -0.119919         0.286220         2.527945
 H         1.577043         0.387627         0.420085
 H        -1.746854         1.304467        -0.496408
 H        -2.244090        -0.139352         0.466533
 H        -0.611657         3.270639         1.115150
 H        -0.253425         2.551617         2.733538
 H        -1.515102         2.230050         4.298928
 H        -3.081839         1.370090         4.662753
 H        -2.373811        -0.217476         2.746281
 H         0.723724         0.697397         3.058808
 H         0.100862        -0.844560         2.358740
