19
Iteration:   335
 O         0.872542         0.789700         0.210648
 C        -0.198501         0.968821         1.117139
 C        -1.762190         1.021544         0.432012
 C        -1.928542         1.755470         1.778928
 C        -0.516856         2.360691         1.597245
 O        -2.909309         2.292411         2.667798
 C        -2.274433         1.596218         3.873887
 C        -1.783872         0.609541         2.773748
 C        -0.334484         0.111746         2.422689
 H         1.683060         0.459794         0.615767
 H        -1.970891         1.779357        -0.334787
 H        -2.355396         0.094047         0.193738
 H        -0.219398         3.168374         0.874007
 H        -0.207355         2.751299         2.484060
 H        -1.547897         2.255079         4.394375
 H        -2.934182         1.166489         4.622991
 H        -2.556325        -0.171128         2.667716
 H         0.497590         0.195283         3.114995
 H        -0.276231        -0.876185         2.160903
