19
Iteration:  4961
 O         0.832421         0.843152         0.137925
 C        -0.220701         0.939993         1.089738
 C        -1.841922         0.937472         0.531708
 C        -1.954546         1.688603         1.845535
 C        -0.654074         2.411245         1.472222
 O        -3.075452         2.132888         2.677418
 C        -2.203481         1.630452         3.780955
 C        -1.559097         0.607747         2.882023
 C        -0.082037         0.323167         2.537029
 H         0.801334        -0.066800        -0.130278
 H        -1.834044         1.573434        -0.315499
 H        -2.339895        -0.037869         0.434006
 H        -0.718018         2.939595         0.598258
 H         0.008425         2.872231         2.130356
 H        -1.562693         2.515609         4.082417
 H        -2.899079         1.389166         4.698828
 H        -2.239458        -0.287837         2.832052
 H         0.551227         0.989330         3.123547
 H         0.246793        -0.746923         2.631008
