19
Iteration:  3687
 O         0.915344         0.743977         0.220355
 C        -0.255017         1.053984         1.019943
 C        -1.728955         0.825517         0.561933
 C        -1.942858         1.622527         1.888520
 C        -0.654525         2.406630         1.448513
 O        -2.944556         2.242125         2.699136
 C        -2.318672         1.652601         3.836755
 C        -1.634797         0.628734         2.958520
 C        -0.212855         0.288315         2.357428
 H         0.886321         1.149066        -0.712986
 H        -1.769838         1.530553        -0.201034
 H        -2.374266        -0.092786         0.462205
 H        -0.707863         3.038289         0.561091
 H        -0.203717         2.973239         2.158890
 H        -1.695028         2.308974         4.426498
 H        -3.091003         1.192853         4.377188
 H        -2.270953        -0.238114         2.911902
 H         0.590822         0.716336         2.951465
 H         0.018478        -0.878795         2.301802
