19
Iteration:  2363charge 0 multiplicity 1
 O         0.899174         0.856998         0.062541
 C        -0.193526         0.990125         0.928627
 C        -1.614210         0.849401         0.392185
 C        -1.935293         1.727813         1.917180
 C        -0.539653         2.370438         1.553621
 O        -3.131749         2.280915         2.849611
 C        -2.375018         1.604089         3.937036
 C        -1.713587         0.690287         2.904162
 C        -0.171198         0.190548         2.374111
 H         0.821861        -0.076091        -0.343043
 H        -2.023852         1.371685        -0.518088
 H        -1.910895        -0.168986         0.308166
 H        -0.369858         3.235593         0.877896
 H         0.110822         2.578990         2.461602
 H        -1.808069         2.390833         4.471041
 H        -2.939700         1.025444         4.690925
 H        -2.354949        -0.180852         2.868891
 H         0.568375         0.741538         2.911465
 H         0.072161        -0.965669         2.395509
