19
Iteration:  4185
 O         0.888900         0.743392         0.321761
 C        -0.304639         1.006762         1.074204
 C        -1.901995         0.844986         0.528176
 C        -1.963908         1.675310         1.771425
 C        -0.595217         2.437940         1.453850
 O        -2.965364         2.173074         2.710368
 C        -2.205446         1.631311         3.775422
 C        -1.611879         0.608464         2.839750
 C        -0.155291         0.308966         2.457204
 H         0.878328         1.289794        -0.425266
 H        -2.114249         1.469431        -0.317599
 H        -2.391750        -0.153274         0.406608
 H        -0.628571         3.232726         0.663135
 H         0.043726         2.882705         2.357901
 H        -1.409225         2.374848         4.135299
 H        -2.824930         1.495751         4.587953
 H        -2.162100        -0.303959         2.727130
 H         0.655636         0.815241         2.988340
 H        -0.024714        -0.720486         2.370168
