19
Iteration:  2697charge 0 multiplicity 1
 O         0.639968         0.806866         0.057101
 C        -0.232724         0.988530         1.128779
 C        -1.696666         0.744524         0.555954
 C        -1.952013         1.677432         1.783228
 C        -0.729578         2.441487         1.607814
 O        -2.980068         2.220305         2.638234
 C        -2.274070         1.710023         3.821499
 C        -1.526393         0.719528         2.880486
 C        -0.073178         0.248089         2.470100
 H         1.579394         0.597565         0.359791
 H        -1.765557         1.072877        -0.444727
 H        -2.110363        -0.219384         0.561913
 H        -0.695004         3.243498         0.853944
 H        -0.201766         2.646086         2.590746
 H        -1.535411         2.501966         4.154496
 H        -2.923085         1.153857         4.613031
 H        -2.147724        -0.198462         2.870244
 H         0.885739         0.522155         2.977012
 H         0.096958        -0.883808         2.158527
