19
Iteration:  4039
 O         0.897151         0.762998         0.278226
 C        -0.231289         0.995897         1.050929
 C        -1.819376         0.832354         0.588571
 C        -1.960479         1.674178         1.796204
 C        -0.629496         2.347240         1.478957
 O        -3.005754         2.209778         2.693771
 C        -2.268498         1.687988         3.846561
 C        -1.556838         0.667309         2.854219
 C        -0.210414         0.272641         2.363913
 H         0.945615         1.530303        -0.407353
 H        -2.041136         1.491543        -0.358715
 H        -2.218538        -0.213921         0.575305
 H        -0.725196         3.080237         0.624041
 H        -0.045325         2.655343         2.503709
 H        -1.571418         2.443231         4.122774
 H        -2.911102         1.197199         4.534288
 H        -2.255052        -0.222698         2.854543
 H         0.575094         0.756491         2.911915
 H         0.040725        -0.798223         2.142425
