19
Iteration:   614charge 0 multiplicity 1
 O         0.777258         0.589819         0.132992
 C        -0.280579         1.048385         1.116478
 C        -1.629451         0.942647         0.435115
 C        -1.913406         1.694278         1.799362
 C        -0.545830         2.453430         1.626444
 O        -2.971516         2.312776         2.695532
 C        -2.441033         1.658983         3.890538
 C        -1.640836         0.605347         2.913007
 C        -0.214705         0.213336         2.318728
 H         1.530589         1.284613         0.093380
 H        -1.468015         1.438059        -0.493957
 H        -1.864502        -0.072750         0.285980
 H        -0.288310         3.208922         0.951285
 H         0.105019         2.614863         2.703656
 H        -1.875959         2.380321         4.495317
 H        -3.242002         1.176724         4.483409
 H        -2.248459        -0.288565         2.854079
 H         0.555235         0.507949         2.937943
 H        -0.176015        -0.870573         2.035501
