19
Iteration:  4582
 O         0.896436         0.829321         0.221266
 C        -0.280511         0.990572         1.044812
 C        -1.851128         0.875572         0.581426
 C        -1.956491         1.577145         1.848576
 C        -0.632843         2.386985         1.470605
 O        -2.954355         2.305440         2.660826
 C        -2.286505         1.621191         3.808232
 C        -1.599240         0.569988         2.904433
 C        -0.114786         0.255764         2.418706
 H         0.806302         1.514058        -0.409258
 H        -2.030604         1.470327        -0.375393
 H        -2.277850        -0.163569         0.414559
 H        -0.854808         3.049762         0.641319
 H        -0.102060         2.818054         2.200230
 H        -1.596404         2.272524         4.402526
 H        -2.847006         1.225498         4.569403
 H        -2.209925        -0.374322         2.941666
 H         0.628943         0.773919         3.001486
 H         0.010119        -0.850123         2.382443
