19
Iteration:   988charge 0 multiplicity 1
 O         0.826157         0.797199         0.183586
 C        -0.319660         0.998719         0.995147
 C        -1.769191         0.920732         0.438380
 C        -1.911259         1.584318         1.843140
 C        -0.573978         2.302713         1.741801
 O        -2.847352         2.303147         2.614907
 C        -2.318625         1.728358         3.844176
 C        -1.633206         0.604951         2.897139
 C        -0.216810         0.163224         2.348027
 H         0.886206         1.614982        -0.286277
 H        -1.927745         1.479548        -0.463058
 H        -2.315567         0.006102         0.471984
 H        -0.836469         3.134656         1.185989
 H        -0.074949         2.550761         2.840865
 H        -1.634862         2.401466         4.328328
 H        -3.135817         1.408976         4.479487
 H        -2.214804        -0.279229         2.866156
 H         0.630565         0.584056         2.960802
 H        -0.179844        -0.926349         2.342077
