19
Iteration:  1909charge 0 multiplicity 1
 O         0.809593         0.907343         0.220318
 C        -0.264223         1.046646         1.051366
 C        -1.791249         0.850718         0.495627
 C        -1.954619         1.636451         1.856236
 C        -0.631922         2.417815         1.493100
 O        -2.866714         2.356797         2.736481
 C        -2.380535         1.481424         3.795747
 C        -1.569251         0.545305         2.897203
 C        -0.149218         0.258516         2.399516
 H         0.998734        -0.019346         0.097313
 H        -2.020988         1.373591        -0.433087
 H        -2.289746        -0.088751         0.512378
 H        -0.864466         2.986447         0.569530
 H        -0.002800         3.064188         2.105579
 H        -1.628348         2.025545         4.373138
 H        -3.158670         1.090263         4.416947
 H        -2.152614        -0.338543         2.793648
 H         0.720054         0.828042         2.903004
 H         0.145433        -0.758277         2.293228
