19
Iteration:  1255charge 0 multiplicity 1
 O         0.729717         0.722296         0.020797
 C        -0.281875         0.948675         1.113799
 C        -1.721008         0.876129         0.590623
 C        -1.943704         1.708636         1.821634
 C        -0.557006         2.476701         1.602910
 O        -3.049417         2.182470         2.706465
 C        -2.260757         1.624061         3.776939
 C        -1.604098         0.663868         2.808836
 C        -0.144564         0.341680         2.512023
 H         1.587058         0.555799         0.368612
 H        -1.813956         1.376165        -0.391520
 H        -2.136389        -0.149071         0.525294
 H        -0.472811         3.093813         0.631484
 H         0.062412         2.712133         2.462417
 H        -1.600100         2.388157         4.122975
 H        -2.809439         1.197069         4.655989
 H        -2.222106        -0.218854         2.524301
 H         0.607344         0.871145         3.121081
 H        -0.004367        -0.759413         2.418926
