19
Iteration:  2473charge 0 multiplicity 1
 O         0.847166         0.835908         0.175490
 C        -0.232639         1.043248         1.068373
 C        -1.806881         0.879827         0.645370
 C        -1.894348         1.650428         1.880237
 C        -0.573060         2.417978         1.607603
 O        -2.985289         2.231906         2.620546
 C        -2.324881         1.672305         3.824002
 C        -1.550479         0.613661         2.860175
 C        -0.214727         0.155331         2.338301
 H         0.559395         0.595945        -0.687785
 H        -2.004010         1.463307        -0.295229
 H        -2.013851        -0.189151         0.603995
 H        -0.656414         3.178816         0.791615
 H        -0.025333         3.008025         2.327831
 H        -1.678412         2.374529         4.438524
 H        -3.091407         1.270789         4.494435
 H        -2.322211        -0.164756         2.792439
 H         0.737736         0.335993         2.879984
 H        -0.189086        -0.928386         2.034266
