19
Iteration:    19
 O         0.868279         0.790924         0.193385
 C        -0.109904         0.923553         1.207671
 C        -1.801308         1.242536         0.421559
 C        -1.965045         1.753320         1.757513
 C        -0.438931         2.295493         1.773188
 O        -3.027136         2.372862         2.636844
 C        -2.223928         1.538494         3.794513
 C        -1.729433         0.615574         2.782523
 C        -0.343405        -0.025545         2.377211
 H         1.471192         0.121936         0.447749
 H        -1.707274         1.984588        -0.405690
 H        -2.326352         0.358730         0.004820
 H        -0.337959         3.073381         0.839240
 H         0.059854         2.813168         2.592032
 H        -1.618458         2.334680         4.278211
 H        -3.048050         1.007865         4.318066
 H        -2.486330        -0.149861         2.613110
 H         0.374455        -0.008892         3.309004
 H        -0.557540        -1.049147         2.150155
