19
Iteration:  4759charge 0 multiplicity 1
 O         0.819752         0.648144         0.126414
 C        -0.173774         1.140044         1.048087
 C        -1.735682         0.868682         0.487914
 C        -2.014394         1.510130         1.827644
 C        -0.703052         2.390667         1.623591
 O        -3.059100         2.204688         2.623459
 C        -2.243125         1.724796         3.856339
 C        -1.514236         0.616966         3.013417
 C        -0.142192         0.338506         2.380703
 H         1.070479         1.354702        -0.421245
 H        -1.975455         1.675934        -0.345090
 H        -2.129904        -0.091913         0.167144
 H        -0.647946         3.283370         0.889301
 H        -0.215147         2.787198         2.504823
 H        -1.598828         2.721095         4.109643
 H        -2.824157         1.224463         4.623853
 H        -2.198488        -0.284319         3.048896
 H         0.722913         0.541113         3.078401
 H        -0.121077        -0.725022         2.294664
