19
Iteration:  2274
 O         0.861857         0.756965         0.151151
 C        -0.237781         1.034283         1.077837
 C        -1.785441         0.853361         0.475510
 C        -1.970651         1.712882         1.815073
 C        -0.737758         2.566466         1.561778
 O        -2.989226         2.243300         2.726336
 C        -2.224841         1.589007         3.874579
 C        -1.567604         0.607752         2.864783
 C        -0.164540         0.124257         2.353689
 H         1.604598         1.400001         0.415499
 H        -1.963957         1.275701        -0.536355
 H        -2.246675        -0.160155         0.554852
 H        -0.764803         3.292254         0.745040
 H        -0.019528         2.871355         2.386545
 H        -1.627880         2.440885         4.219821
 H        -2.880944         1.244763         4.746707
 H        -2.296010        -0.243529         2.828333
 H         0.681458         0.267343         2.993814
 H        -0.249017        -1.029420         2.125813
