19
Iteration:  1858charge 0 multiplicity 1
 O         0.759768         0.864873         0.165227
 C        -0.253484         1.046385         1.077321
 C        -1.737090         0.979011         0.601426
 C        -1.953107         1.599240         1.906952
 C        -0.548121         2.419045         1.531754
 O        -3.029101         2.119442         2.588203
 C        -2.286235         1.712118         3.870600
 C        -1.590507         0.537162         2.901811
 C        -0.111257         0.225929         2.365262
 H         0.763257        -0.028221        -0.274893
 H        -1.775531         1.656883        -0.278865
 H        -2.173528         0.018316         0.341325
 H        -0.700695         3.255911         0.794388
 H         0.052525         2.856411         2.367596
 H        -1.484385         2.393310         4.217873
 H        -3.117685         1.530495         4.642187
 H        -2.405636        -0.232147         2.805518
 H         0.632886         0.550997         3.067936
 H         0.211201        -0.757566         2.003154
