19
Iteration:   625
 O         0.771580         0.663479         0.131152
 C        -0.144021         0.987528         1.087170
 C        -1.659524         0.913046         0.499966
 C        -1.988238         1.712000         1.861417
 C        -0.503338         2.433802         1.626165
 O        -2.988165         2.337465         2.691696
 C        -2.421729         1.648263         3.824055
 C        -1.637677         0.643642         2.835841
 C        -0.197175         0.133864         2.388170
 H         1.532435         1.290632         0.129109
 H        -1.776022         1.558369        -0.347589
 H        -2.150757        -0.016124         0.320830
 H        -0.522842         3.039142         0.758966
 H        -0.085671         3.078969         2.605569
 H        -1.851246         2.331672         4.474850
 H        -3.251540         1.190406         4.393188
 H        -2.303517        -0.210989         2.730674
 H         0.664554         0.235508         2.963369
 H        -0.233484        -0.960121         2.132319
