19
Iteration:  3502
 O         0.825269         0.685197         0.202695
 C        -0.223859         0.963624         1.061069
 C        -1.786769         0.954506         0.528928
 C        -1.915464         1.679328         1.867850
 C        -0.631161         2.530155         1.572085
 O        -3.021907         2.154958         2.669539
 C        -2.364329         1.666961         3.818172
 C        -1.547116         0.618261         2.901251
 C        -0.109175         0.229681         2.393741
 H         0.810801         1.169968        -0.672906
 H        -1.951651         1.560117        -0.317606
 H        -2.257006        -0.145711         0.508824
 H        -0.697121         3.138363         0.575158
 H         0.041313         3.100683         2.245715
 H        -1.510464         2.413555         4.087437
 H        -3.043974         1.332338         4.541674
 H        -2.227189        -0.260761         2.733722
 H         0.695489         0.590253         3.020184
 H         0.156922        -0.839256         2.413126
