19
Iteration:  1930charge 0 multiplicity 1
 O         0.897443         0.883216         0.214699
 C        -0.253781         1.055584         0.965580
 C        -1.822252         0.921416         0.554258
 C        -1.914970         1.617650         1.902954
 C        -0.649672         2.434144         1.466981
 O        -2.916259         2.208157         2.649810
 C        -2.282369         1.588901         3.920746
 C        -1.646834         0.500799         2.877924
 C        -0.214722         0.294046         2.368564
 H         1.122906        -0.103529         0.155300
 H        -2.043443         1.589820        -0.304520
 H        -2.322376        -0.055353         0.341170
 H        -0.820279         3.266856         0.793017
 H         0.011885         2.854197         2.199275
 H        -1.680831         2.388577         4.313897
 H        -2.961886         1.173134         4.598661
 H        -2.361147        -0.291304         2.826682
 H         0.631922         0.730902         3.046459
 H         0.081152        -0.740974         2.313866
