19
Iteration:  1611charge 0 multiplicity 1
 O         0.842211         0.773598         0.074241
 C        -0.197071         1.019153         1.061558
 C        -1.732149         0.933236         0.518115
 C        -2.023368         1.591975         1.939704
 C        -0.670558         2.387529         1.571531
 O        -3.035929         2.183257         2.688561
 C        -2.254911         1.705249         3.806618
 C        -1.551243         0.640515         2.914715
 C        -0.164088         0.273574         2.392585
 H         1.088996        -0.199399         0.165415
 H        -1.814269         1.832891        -0.100290
 H        -2.138410         0.146399        -0.152112
 H        -0.826050         3.260671         0.814627
 H        -0.001680         2.867628         2.365809
 H        -1.450737         2.469551         4.130618
 H        -2.869222         1.266348         4.620008
 H        -2.315359        -0.202684         2.910175
 H         0.616393         0.692743         2.958165
 H        -0.133984        -0.839214         2.424379
