19
Iteration:  1062charge 0 multiplicity 1
 O         0.819498         0.700823         0.154897
 C        -0.246240         0.997518         1.015281
 C        -1.780174         0.950389         0.445131
 C        -1.960019         1.684671         1.878793
 C        -0.640148         2.361996         1.662043
 O        -2.961773         2.307121         2.688759
 C        -2.312529         1.631653         3.873047
 C        -1.628662         0.600045         2.891164
 C        -0.158169         0.288568         2.302074
 H         1.690451         0.438548         0.511690
 H        -1.823983         1.607872        -0.435856
 H        -2.208113        -0.057791         0.354529
 H        -0.840121         3.156507         0.957417
 H         0.120250         2.668792         2.324764
 H        -1.618963         2.334784         4.346839
 H        -3.051405         1.207576         4.498194
 H        -2.157869        -0.329925         2.821861
 H         0.729602         0.643013         2.795678
 H         0.078764        -0.751782         2.314279
