19
Iteration:  2300charge 0 multiplicity 1
 O         0.910940         0.727801         0.178534
 C        -0.253831         1.020262         1.021340
 C        -1.726426         0.934211         0.482905
 C        -2.003438         1.665886         1.835677
 C        -0.636763         2.325383         1.572844
 O        -3.018257         2.181838         2.775886
 C        -2.236537         1.646548         3.886994
 C        -1.656008         0.619048         2.863406
 C        -0.215017         0.322553         2.316033
 H         1.141389         1.592696        -0.291366
 H        -1.849598         1.543819        -0.405911
 H        -2.077411        -0.052701         0.379609
 H        -0.660544         3.168220         0.808270
 H         0.072463         2.508164         2.466947
 H        -1.591332         2.478663         4.146461
 H        -2.797967         1.278935         4.695687
 H        -2.398905        -0.174034         2.853167
 H         0.637516         0.661864         2.946810
 H        -0.087125        -0.754617         2.184131
