19
Iteration:  2871
 O         0.874548         0.712087         0.158954
 C        -0.204852         1.005254         1.033779
 C        -1.714749         0.867443         0.428785
 C        -1.997690         1.566016         1.782141
 C        -0.722657         2.437130         1.531756
 O        -3.056522         2.289719         2.785142
 C        -2.251618         1.733131         3.874941
 C        -1.578862         0.607546         2.857251
 C        -0.111719         0.212093         2.468786
 H         0.772028         1.358525        -0.522742
 H        -1.819855         1.657916        -0.367123
 H        -2.072917        -0.181621         0.149220
 H        -0.892853         3.046805         0.622096
 H        -0.278579         2.827862         2.458241
 H        -1.624808         2.449118         4.402147
 H        -2.789659         1.449147         4.759602
 H        -2.199557        -0.321044         2.969840
 H         0.561701         0.618986         3.189429
 H         0.179808        -0.863167         2.307921
