19
Iteration:  2517
 O         0.772891         0.680368         0.143120
 C        -0.236208         0.996701         1.077657
 C        -1.650891         0.972391         0.448509
 C        -1.994921         1.636164         1.853998
 C        -0.636203         2.391660         1.485043
 O        -2.956733         2.209502         2.758038
 C        -2.253532         1.585329         3.878220
 C        -1.667949         0.656168         2.872380
 C        -0.161972         0.283019         2.433871
 H         1.266862         1.466883         0.003448
 H        -1.751139         1.768730        -0.381562
 H        -2.150735         0.017427         0.156955
 H        -0.946987         3.011323         0.586524
 H         0.020096         3.169756         1.952911
 H        -1.758632         2.500370         4.396877
 H        -2.904376         1.146624         4.637552
 H        -2.297426        -0.230305         2.772235
 H         0.595183         0.681590         3.191789
 H         0.024800        -0.819129         2.472655
