19
Iteration:   898charge 0 multiplicity 1
 O         0.888851         0.678715         0.238600
 C        -0.243954         0.982719         1.035894
 C        -1.891434         1.065114         0.466575
 C        -1.952045         1.663662         1.832587
 C        -0.585565         2.383611         1.570591
 O        -2.862009         2.314051         2.607159
 C        -2.343317         1.582085         3.904093
 C        -1.602595         0.562048         2.852318
 C        -0.218906         0.179794         2.427260
 H         1.019750         1.444707        -0.393296
 H        -1.903101         1.852652        -0.325660
 H        -2.505869         0.139713         0.314792
 H        -0.749774         3.254753         0.813938
 H        -0.011894         2.826687         2.523777
 H        -1.594619         2.207675         4.376830
 H        -3.137462         1.238712         4.535943
 H        -2.178823        -0.387696         2.850100
 H         0.471438         0.631382         3.151258
 H         0.157628        -0.908392         2.348734
