19
Iteration:  4398
 O         0.847242         0.711186         0.224987
 C        -0.254072         1.071337         1.101887
 C        -1.755855         0.870684         0.564226
 C        -1.967692         1.652532         1.870879
 C        -0.619453         2.460124         1.508214
 O        -3.034091         2.131245         2.667287
 C        -2.207938         1.716082         3.822819
 C        -1.609138         0.665131         2.887657
 C        -0.149490         0.165662         2.329707
 H         1.008467         1.439284        -0.335479
 H        -1.805223         1.500237        -0.391571
 H        -2.112248        -0.138566         0.505329
 H        -0.762112         3.176619         0.533767
 H        -0.281949         3.177838         2.264224
 H        -1.649871         2.543731         4.208769
 H        -2.784489         1.394458         4.742598
 H        -2.403002        -0.114212         2.809617
 H         0.617689         0.502156         3.044725
 H        -0.135134        -0.969977         2.122914
