19
Iteration:   293charge 0 multiplicity 1
 O         0.873785         0.680609         0.149194
 C        -0.196252         1.024103         1.078548
 C        -1.720434         1.002398         0.469850
 C        -1.924164         1.667675         1.781270
 C        -0.489667         2.406368         1.645208
 O        -2.875605         2.395532         2.673746
 C        -2.394015         1.545936         3.908998
 C        -1.768405         0.597265         2.850584
 C        -0.327386         0.143910         2.359196
 H         1.652929         1.188570         0.234769
 H        -1.771426         1.571582        -0.452275
 H        -2.118660        -0.004728         0.202214
 H        -0.536695         3.241261         0.891192
 H        -0.001316         2.601170         2.622179
 H        -1.890411         2.159911         4.704310
 H        -3.327796         1.157228         4.265117
 H        -2.485820        -0.190830         2.669951
 H         0.414852         0.524703         3.136262
 H        -0.121885        -0.898244         2.233230
