19
Iteration:   774charge 0 multiplicity 1
 O         0.673767         0.721692         0.129143
 C        -0.176691         1.064210         1.127747
 C        -1.623719         0.876215         0.535684
 C        -1.840622         1.742343         1.845269
 C        -0.556716         2.454938         1.592879
 O        -2.939348         2.402736         2.665532
 C        -2.368077         1.544374         3.831874
 C        -1.659640         0.493772         2.908739
 C        -0.246281         0.154530         2.346188
 H         1.624185         0.997138         0.427242
 H        -1.781956         1.521687        -0.397511
 H        -2.021533        -0.189319         0.382551
 H        -0.735839         3.113258         0.601302
 H        -0.132430         2.969573         2.355837
 H        -1.786275         2.269120         4.312999
 H        -3.178787         1.225238         4.497093
 H        -2.399796        -0.285252         2.535279
 H         0.453823         0.548312         3.128887
 H        -0.194516        -0.903139         1.983185
