19
Iteration:  1567charge 0 multiplicity 1
 O         0.826097         0.885206         0.115395
 C        -0.247916         0.952571         1.035136
 C        -1.715502         0.821169         0.610146
 C        -1.893569         1.690433         1.811027
 C        -0.584664         2.376077         1.496791
 O        -3.030828         2.282580         2.720031
 C        -2.340720         1.610517         3.801543
 C        -1.605569         0.653753         2.875767
 C        -0.140893         0.238263         2.477622
 H         0.826981         0.009389        -0.400640
 H        -1.967289         1.426343        -0.288661
 H        -2.276580        -0.119303         0.776741
 H        -0.546423         3.330401         0.732109
 H        -0.163048         3.041102         2.398129
 H        -1.510068         2.314337         4.264603
 H        -2.970541         1.046303         4.523094
 H        -2.299334        -0.291233         2.873239
 H         0.667311         0.532794         3.073617
 H        -0.199750        -0.859508         2.185210
