19
Iteration:  4584
 O         0.888315         0.821028         0.215803
 C        -0.264074         0.987558         1.038939
 C        -1.850961         0.874359         0.566655
 C        -1.953509         1.569544         1.855500
 C        -0.643478         2.393357         1.478960
 O        -2.959032         2.302911         2.659625
 C        -2.273707         1.634073         3.802638
 C        -1.593528         0.558360         2.925588
 C        -0.121019         0.250231         2.416045
 H         0.847251         1.491539        -0.461397
 H        -1.978552         1.543332        -0.407199
 H        -2.299138        -0.122013         0.487261
 H        -0.882087         3.129472         0.645940
 H        -0.114261         2.862353         2.301252
 H        -1.637977         2.252108         4.364927
 H        -2.925077         1.213176         4.526900
 H        -2.265336        -0.341751         2.933600
 H         0.645612         0.829269         3.009575
 H         0.086473        -0.833585         2.384100
