19
Iteration:  2307
 O         0.862602         0.756189         0.205350
 C        -0.247907         1.026207         1.037106
 C        -1.763997         0.943584         0.433656
 C        -2.002501         1.658764         1.845264
 C        -0.615563         2.406334         1.561642
 O        -2.987979         2.183134         2.743083
 C        -2.271840         1.657737         3.871056
 C        -1.612685         0.559628         2.866848
 C        -0.174734         0.243203         2.383973
 H         0.913935         1.494311        -0.430687
 H        -1.760965         1.656369        -0.431958
 H        -2.326400        -0.006657         0.294756
 H        -0.664483         3.152087         0.766949
 H         0.131483         2.720960         2.354743
 H        -1.490818         2.416221         4.085491
 H        -2.929353         1.416870         4.777114
 H        -2.274866        -0.330816         2.931762
 H         0.606985         0.628603         2.996586
 H         0.007370        -0.910150         2.291612
