19
Iteration:  2526
 O         0.804297         0.689778         0.135455
 C        -0.205299         1.045639         1.057417
 C        -1.697448         0.935721         0.485233
 C        -1.919070         1.661907         1.845465
 C        -0.646053         2.499855         1.434881
 O        -2.966825         2.170446         2.724938
 C        -2.270871         1.607808         3.938433
 C        -1.590269         0.628363         2.897282
 C        -0.280911         0.234201         2.440531
 H         1.531481         1.285125         0.250248
 H        -1.864098         1.532617        -0.519927
 H        -2.213270        -0.057132         0.465233
 H        -0.983681         3.055358         0.550725
 H         0.033039         3.090531         2.026242
 H        -1.578176         2.358781         4.461667
 H        -3.043520         1.142757         4.625183
 H        -2.420976        -0.113917         2.811555
 H         0.520609         0.615618         3.028152
 H        -0.123810        -0.822901         2.146792
