19
Iteration:  1065
 O         0.821937         0.708528         0.112897
 C        -0.258849         1.007209         1.029826
 C        -1.757653         0.955951         0.452113
 C        -1.947066         1.692252         1.894493
 C        -0.669792         2.344435         1.645189
 O        -2.958341         2.312065         2.699983
 C        -2.326580         1.646963         3.839568
 C        -1.630122         0.582666         2.899313
 C        -0.139697         0.267559         2.321254
 H         1.679363         0.338409         0.516431
 H        -1.847818         1.605554        -0.392621
 H        -2.167734        -0.023963         0.304771
 H        -0.779109         3.127438         0.966290
 H         0.131790         2.694871         2.457301
 H        -1.726767         2.323161         4.332494
 H        -3.047519         1.240961         4.533400
 H        -2.201979        -0.316213         2.852943
 H         0.695088         0.697004         2.888427
 H         0.135586        -0.758248         2.348997
