19
Iteration:  2475charge 0 multiplicity 1
 O         0.844910         0.825705         0.178119
 C        -0.229529         1.045247         1.062209
 C        -1.834041         0.877042         0.647405
 C        -1.895299         1.650519         1.879018
 C        -0.575729         2.410082         1.633719
 O        -2.968183         2.226514         2.613366
 C        -2.323065         1.674019         3.820124
 C        -1.562135         0.617015         2.831284
 C        -0.205919         0.172896         2.343563
 H         0.575251         0.622338        -0.749894
 H        -2.026236         1.382680        -0.247555
 H        -2.012878        -0.178267         0.581782
 H        -0.657643         3.212195         0.825483
 H        -0.005852         3.043854         2.409516
 H        -1.684966         2.341396         4.416360
 H        -3.037943         1.241238         4.468578
 H        -2.325178        -0.124349         2.826450
 H         0.778377         0.391164         2.918019
 H        -0.180228        -0.906927         2.083892
