19
Iteration:  4740charge 0 multiplicity 1
 O         0.877114         0.670805         0.216438
 C        -0.324108         1.000617         0.983517
 C        -1.777698         0.936689         0.518979
 C        -1.971247         1.635665         1.845361
 C        -0.659069         2.446195         1.600400
 O        -3.061431         2.074820         2.643778
 C        -2.233228         1.783632         3.851186
 C        -1.493764         0.673302         2.939247
 C        -0.128746         0.255117         2.336462
 H         1.247192         1.516245        -0.014513
 H        -1.985547         1.449526        -0.464425
 H        -2.261162        -0.028561         0.228717
 H        -1.003802         3.231235         0.975568
 H        -0.075737         2.747742         2.406168
 H        -1.587637         2.647120         4.194452
 H        -2.982541         1.372545         4.642475
 H        -2.166990        -0.215951         3.041694
 H         0.848157         0.646333         2.802524
 H        -0.091367        -0.863111         2.323089
