19
Iteration:  1387
 O         0.791020         0.611657         0.137906
 C        -0.246786         1.073878         0.992496
 C        -1.699856         0.891365         0.513572
 C        -1.992603         1.706841         1.819682
 C        -0.675434         2.455864         1.661637
 O        -2.978128         2.214751         2.632360
 C        -2.275225         1.656315         3.965176
 C        -1.557274         0.652791         2.858498
 C        -0.163084         0.259739         2.313202
 H         1.626470         0.752709         0.529561
 H        -1.953173         1.418733        -0.401915
 H        -1.991262        -0.164735         0.474898
 H        -0.732113         3.159143         0.828661
 H        -0.138408         3.001128         2.505522
 H        -1.796588         2.585753         4.470181
 H        -3.178504         1.195211         4.548907
 H        -2.255830        -0.167239         2.861314
 H         0.665044         0.636748         2.978043
 H         0.006165        -0.786452         2.183183
