19
Iteration:  4859
 O         0.817489         0.848613         0.092992
 C        -0.199333         1.008406         1.151223
 C        -1.801710         0.885794         0.501091
 C        -1.992744         1.681667         1.792550
 C        -0.620976         2.415901         1.551771
 O        -3.056689         2.140356         2.704084
 C        -2.234613         1.680362         3.800487
 C        -1.569135         0.612200         2.836347
 C        -0.112211         0.290315         2.521724
 H         0.811083        -0.164069         0.168363
 H        -1.946368         1.210982        -0.547341
 H        -2.302763        -0.072442         0.397776
 H        -0.613515         3.097817         0.616677
 H        -0.253471         2.872229         2.462898
 H        -1.373111         2.421332         4.077446
 H        -2.794390         1.543747         4.742736
 H        -2.210315        -0.343500         2.813930
 H         0.717410         0.681096         3.188010
 H         0.096312        -0.741047         2.263681
