19
Iteration:  4199charge 0 multiplicity 1
 O         0.882671         0.778075         0.315602
 C        -0.241118         0.956710         1.028259
 C        -1.792506         0.925250         0.505650
 C        -1.975211         1.623182         1.850275
 C        -0.711478         2.365906         1.502322
 O        -3.000098         2.222986         2.632978
 C        -2.166830         1.704377         3.850551
 C        -1.555988         0.631187         2.926397
 C        -0.199485         0.248327         2.374417
 H         0.855385         1.293459        -0.571792
 H        -1.817892         1.386503        -0.450879
 H        -2.447387        -0.022449         0.432417
 H        -0.937004         3.008674         0.597997
 H        -0.141748         2.830645         2.223476
 H        -1.466455         2.550602         4.187220
 H        -2.870854         1.040873         4.503890
 H        -2.292326        -0.183641         2.945859
 H         0.646697         0.680881         3.035599
 H         0.002871        -0.844913         2.273545
