19
Iteration:  2653charge 0 multiplicity 1
 O         0.878205         0.672472         0.071862
 C        -0.236192         0.988521         0.935734
 C        -1.820451         0.916907         0.589081
 C        -1.915476         1.607629         1.915157
 C        -0.704895         2.430206         1.384047
 O        -2.956801         2.217054         2.682529
 C        -2.390699         1.639884         3.931959
 C        -1.553725         0.604589         2.959423
 C        -0.097845         0.356278         2.461122
 H         1.642543         1.287467         0.349192
 H        -1.898397         1.604849        -0.174438
 H        -2.325460         0.084699         0.239828
 H        -1.068615         3.018856         0.519096
 H        -0.126159         3.020420         2.151904
 H        -1.634852         2.269227         4.398748
 H        -3.278973         1.387518         4.632559
 H        -2.264342        -0.205454         2.834491
 H         0.688191         0.746695         3.130245
 H         0.094535        -0.764619         2.525976
