19
Iteration:  3400
 O         0.921752         0.714489         0.169608
 C        -0.195133         1.047083         1.100630
 C        -1.776265         0.844923         0.498255
 C        -2.065781         1.594372         1.826274
 C        -0.661282         2.404359         1.581556
 O        -3.068665         2.253997         2.681556
 C        -2.172247         1.700037         3.802824
 C        -1.564247         0.623561         2.911814
 C        -0.211026         0.235694         2.370690
 H         1.053485         1.502874        -0.349129
 H        -1.983908         1.641585        -0.254042
 H        -2.220196        -0.086993         0.446891
 H        -0.762802         3.194278         0.844382
 H        -0.071043         2.778257         2.455669
 H        -1.569319         2.535281         4.165684
 H        -2.718871         1.282238         4.684469
 H        -2.256736        -0.235980         2.956985
 H         0.676703         0.631221         2.958632
 H        -0.107894        -0.926539         2.168626
