19
Iteration:  1393charge 0 multiplicity 1
 O         0.800572         0.611379         0.122377
 C        -0.199053         1.084520         1.007589
 C        -1.727888         0.885951         0.491206
 C        -1.955956         1.672583         1.829505
 C        -0.687209         2.529539         1.595509
 O        -3.024534         2.260394         2.673855
 C        -2.274566         1.599478         3.918413
 C        -1.501431         0.690331         2.852968
 C        -0.191700         0.212611         2.406002
 H         1.645978         0.670975         0.659968
 H        -2.036650         1.383501        -0.452248
 H        -2.054263        -0.168858         0.408669
 H        -0.915948         3.204424         0.718070
 H        -0.152007         2.812509         2.498294
 H        -1.690361         2.270550         4.529422
 H        -3.137540         1.321547         4.515137
 H        -2.284199        -0.127367         2.835184
 H         0.587583         0.671678         3.013770
 H         0.010795        -0.868537         2.114828
