19
Iteration:  1969
 O         0.766643         0.939991         0.146957
 C        -0.255558         0.996822         1.087106
 C        -1.617772         0.869636         0.495396
 C        -1.968157         1.663314         1.817638
 C        -0.629069         2.425619         1.624589
 O        -3.060024         2.129190         2.676008
 C        -2.208192         1.688391         3.838891
 C        -1.598052         0.647118         2.887408
 C        -0.197041         0.156146         2.367860
 H         0.827452         0.035081        -0.109929
 H        -1.743902         1.520552        -0.362266
 H        -2.247276        -0.037930         0.358575
 H        -0.524861         3.157268         0.784821
 H        -0.030659         2.675907         2.574510
 H        -1.555104         2.611302         4.081849
 H        -2.654106         1.458012         4.894840
 H        -2.318940        -0.237456         2.788137
 H         0.526540         0.520295         3.018957
 H         0.033996        -0.949629         2.176387
