19
Iteration:  4946
 O         0.793923         0.888766         0.251230
 C        -0.281303         1.037985         1.055162
 C        -1.811127         0.771582         0.517094
 C        -1.950533         1.641513         1.752208
 C        -0.535761         2.418653         1.410941
 O        -2.995779         2.148715         2.735239
 C        -2.234936         1.692789         3.851935
 C        -1.612693         0.578277         2.864754
 C        -0.159256         0.322452         2.498626
 H         0.822414         0.124143        -0.317844
 H        -1.877476         1.251404        -0.468459
 H        -2.455927        -0.147617         0.586968
 H        -0.614591         3.322416         0.521174
 H        -0.075623         2.976039         2.307705
 H        -1.395100         2.303885         4.163864
 H        -2.749020         1.249696         4.624766
 H        -2.319782        -0.277146         2.608210
 H         0.541748         0.910147         3.147557
 H         0.315516        -0.649483         2.440489
