19
Iteration:  2525charge 0 multiplicity 1
 O         0.800875         0.687795         0.135337
 C        -0.206511         1.041000         1.064213
 C        -1.687996         0.942674         0.477628
 C        -1.926015         1.655200         1.844957
 C        -0.647012         2.486880         1.439388
 O        -2.963152         2.171305         2.728863
 C        -2.266899         1.606859         3.935882
 C        -1.596192         0.634408         2.893605
 C        -0.272550         0.240675         2.441722
 H         1.501133         1.308765         0.226538
 H        -1.864571         1.551328        -0.507519
 H        -2.214973        -0.038007         0.442302
 H        -0.980920         3.053722         0.579665
 H         0.034501         3.116289         1.967625
 H        -1.618290         2.362714         4.451919
 H        -3.042691         1.139047         4.636976
 H        -2.433355        -0.118218         2.809396
 H         0.500669         0.616294         3.030128
 H        -0.108297        -0.818162         2.170396
