19
Iteration:  2344charge 0 multiplicity 1
 O         0.813757         0.834681         0.130687
 C        -0.210095         1.038520         1.067531
 C        -1.728742         0.868282         0.560265
 C        -1.934690         1.662843         1.817207
 C        -0.566534         2.433167         1.642091
 O        -2.986723         2.253029         2.692629
 C        -2.341168         1.602442         3.858291
 C        -1.595080         0.598270         2.857168
 C        -0.180833         0.227941         2.368554
 H         0.402016         0.441081        -0.694601
 H        -1.770368         1.362782        -0.390787
 H        -2.279882        -0.063729         0.537657
 H        -0.658289         3.222610         0.800316
 H         0.087796         2.778669         2.567699
 H        -1.614608         2.269291         4.312827
 H        -3.113484         1.278785         4.514096
 H        -2.211475        -0.295206         2.698431
 H         0.665424         0.490838         3.077583
 H        -0.112760        -0.840184         2.154816
