19
Iteration:  3931
 O         0.890522         0.742602         0.256066
 C        -0.242054         1.027687         1.043724
 C        -1.712322         0.839957         0.529558
 C        -2.013429         1.647588         1.836913
 C        -0.658324         2.455344         1.488046
 O        -3.003193         2.223745         2.719837
 C        -2.245568         1.715424         3.797257
 C        -1.670276         0.611067         2.898204
 C        -0.159748         0.188634         2.372519
 H         1.009207         1.355699        -0.497597
 H        -2.203801         1.412733        -0.332798
 H        -2.050430        -0.179343         0.380620
 H        -0.761888         3.109073         0.685993
 H        -0.033888         2.962095         2.271867
 H        -1.381893         2.434038         4.298718
 H        -2.904722         1.443577         4.593225
 H        -2.270204        -0.329684         2.969972
 H         0.611040         0.673355         3.022081
 H         0.146672        -0.956459         2.205342
