19
Iteration:  3536charge 0 multiplicity 1
 O         0.857855         0.751116         0.194094
 C        -0.248948         0.994378         1.027940
 C        -1.760126         0.846096         0.479022
 C        -2.010109         1.584701         1.809290
 C        -0.597273         2.444605         1.608542
 O        -2.991855         2.217893         2.709820
 C        -2.276032         1.680832         3.824197
 C        -1.595490         0.682499         2.915585
 C        -0.176379         0.251128         2.419988
 H         0.962534         1.421561        -0.580245
 H        -1.915475         1.414608        -0.398522
 H        -1.998346        -0.232149         0.136052
 H        -0.730927         3.000110         0.660304
 H        -0.087101         2.972761         2.460965
 H        -1.562280         2.412494         4.334847
 H        -2.939181         1.370654         4.602705
 H        -2.102898        -0.296346         2.852028
 H         0.720965         0.612364         2.812900
 H        -0.293880        -0.775782         2.448903
