19
Iteration:  2109charge 0 multiplicity 1
 O         0.864531         0.991229         0.061969
 C        -0.225422         0.984395         1.053689
 C        -1.798267         0.867602         0.634701
 C        -1.877915         1.695262         1.857235
 C        -0.588792         2.412591         1.576779
 O        -3.061537         2.201113         2.681785
 C        -2.270860         1.641692         3.772084
 C        -1.615064         0.592857         2.907245
 C        -0.167274         0.124434         2.430191
 H         0.928040         0.063288        -0.222211
 H        -1.845215         1.479301        -0.229611
 H        -2.111312        -0.112118         0.357151
 H        -0.829810         3.198109         0.825364
 H        -0.117341         2.969202         2.458815
 H        -1.614336         2.373146         4.112923
 H        -2.827600         1.316099         4.690963
 H        -2.418899        -0.172660         2.847636
 H         0.776918         0.202671         3.029895
 H        -0.325929        -0.990833         2.245342
