19
Iteration:  3436charge 0 multiplicity 1
 O         0.890368         0.777099         0.250561
 C        -0.246887         1.051146         1.074947
 C        -1.804528         0.871830         0.533587
 C        -1.961289         1.595633         1.849607
 C        -0.646173         2.468039         1.510570
 O        -2.977908         2.238947         2.649947
 C        -2.218222         1.625507         3.831820
 C        -1.570236         0.651412         2.903055
 C        -0.223212         0.169846         2.387095
 H         0.631419         1.345532        -0.487000
 H        -2.111032         1.435110        -0.328029
 H        -2.364210        -0.124283         0.259594
 H        -0.668318         3.034632         0.493727
 H         0.087739         2.939279         2.175094
 H        -1.538242         2.532267         4.265408
 H        -2.955720         1.185567         4.472931
 H        -2.229104        -0.267755         2.946971
 H         0.515682         0.574322         3.082397
 H         0.021476        -0.895401         2.430026
