19
Iteration:    35charge 0 multiplicity 1
 O         0.928359         0.799129         0.277241
 C        -0.245542         0.974908         1.075854
 C        -1.733092         1.172272         0.422033
 C        -1.864904         1.768687         1.830275
 C        -0.482770         2.376459         1.711977
 O        -2.931076         2.277309         2.677716
 C        -2.352397         1.654134         3.814116
 C        -1.768151         0.535396         2.743707
 C        -0.380369        -0.008799         2.360466
 H         1.106906        -0.123494         0.217046
 H        -1.536459         1.834128        -0.416868
 H        -2.475720         0.423102         0.145105
 H        -0.349654         3.197390         1.137376
 H         0.069222         2.445467         2.680867
 H        -1.438065         2.167445         4.088058
 H        -3.004215         1.483550         4.662783
 H        -2.578303        -0.184100         2.503809
 H         0.454441         0.172411         2.961663
 H        -0.337901        -1.087660         2.042929
