19
Iteration:  4781charge 0 multiplicity 1
 O         0.778183         0.804007         0.174203
 C        -0.244818         0.948467         1.039870
 C        -1.684140         0.849227         0.554976
 C        -1.901033         1.672675         1.839165
 C        -0.693190         2.414588         1.534834
 O        -2.984341         2.197146         2.640182
 C        -2.288862         1.649164         3.860734
 C        -1.607470         0.626825         2.897015
 C        -0.126773         0.246454         2.477240
 H         0.529681         1.259564        -0.720253
 H        -1.747466         1.368274        -0.506035
 H        -2.178752        -0.091657         0.721189
 H        -0.842237         3.192732         0.643933
 H        -0.117393         3.078093         2.209712
 H        -1.415887         2.451517         4.076167
 H        -2.983111         1.306105         4.629822
 H        -2.339816        -0.241922         2.744947
 H         0.703684         0.764706         3.049972
 H         0.183154        -0.781769         2.480394
