19
Iteration:  4021charge 0 multiplicity 1
 O         0.858200         0.776707         0.166341
 C        -0.220709         0.929285         1.055594
 C        -1.777379         0.850658         0.488761
 C        -1.971425         1.684173         1.859191
 C        -0.623076         2.462284         1.479106
 O        -3.017798         2.261119         2.648392
 C        -2.331903         1.632859         3.856631
 C        -1.568537         0.625608         2.934739
 C        -0.101513         0.192876         2.517254
 H         0.698872         1.610099        -0.432535
 H        -1.815756         1.312237        -0.520742
 H        -2.346775        -0.015478         0.356312
 H        -0.837559         3.084571         0.644155
 H         0.032404         2.964031         2.095078
 H        -1.505194         2.402028         4.306561
 H        -3.072085         1.224016         4.584900
 H        -2.258005        -0.218688         2.958894
 H         0.817405         0.639463         3.057138
 H        -0.085493        -0.925368         2.424212
