19
Iteration:  4162
 O         0.878795         0.633932         0.184588
 C        -0.213235         1.029993         1.070749
 C        -1.750730         0.862661         0.534173
 C        -1.976216         1.701708         1.810023
 C        -0.669025         2.409924         1.486775
 O        -3.031142         2.269089         2.703187
 C        -2.221448         1.578545         3.863100
 C        -1.598038         0.622206         2.862460
 C        -0.158371         0.327824         2.435635
 H         1.016619         1.425003        -0.434253
 H        -1.925746         1.316368        -0.475301
 H        -2.299134        -0.088116         0.556174
 H        -0.961073         3.138052         0.727659
 H        -0.128081         3.090263         2.322499
 H        -1.665614         2.381080         4.375817
 H        -2.934613         1.169107         4.477655
 H        -2.243295        -0.264563         2.832166
 H         0.444328         0.908376         3.099246
 H         0.120212        -0.707249         2.362435
