19
Iteration:  3157charge 0 multiplicity 1
 O         0.866402         0.692585         0.156582
 C        -0.192882         1.015964         0.984604
 C        -1.718957         0.875370         0.612691
 C        -1.945688         1.667378         1.875347
 C        -0.614821         2.427459         1.517336
 O        -3.052801         2.233702         2.692713
 C        -2.373299         1.607345         3.871708
 C        -1.580072         0.662276         2.874775
 C        -0.104314         0.282704         2.405983
 H         0.737490         1.172037        -0.727044
 H        -1.957367         1.487824        -0.306096
 H        -2.228626        -0.019599         0.447801
 H        -0.854794         3.181146         0.800146
 H        -0.020132         2.843416         2.288606
 H        -1.823573         2.445724         4.374612
 H        -3.003655         0.979692         4.633331
 H        -2.220474        -0.182081         2.801066
 H         0.611628         0.815919         3.005424
 H         0.044045        -0.792211         2.189396
