19
Iteration:   901
 O         0.898635         0.645885         0.232809
 C        -0.233597         1.003933         1.070111
 C        -1.896819         1.061854         0.460351
 C        -1.943206         1.650735         1.830550
 C        -0.622446         2.424116         1.578159
 O        -2.867373         2.318903         2.629228
 C        -2.331666         1.588086         3.850743
 C        -1.607695         0.527011         2.863654
 C        -0.199217         0.202788         2.407609
 H         0.991674         1.307509        -0.415445
 H        -1.894656         1.868866        -0.245007
 H        -2.553341         0.252475         0.235836
 H        -0.692843         3.125188         0.929249
 H        -0.119379         2.823174         2.466171
 H        -1.508222         2.141212         4.465603
 H        -3.165880         1.251619         4.508185
 H        -2.256529        -0.327033         2.806569
 H         0.511626         0.643574         3.132173
 H         0.146871        -0.812872         2.390056
