19
Iteration:   979charge 0 multiplicity 1
 O         0.853890         0.799609         0.186459
 C        -0.284257         0.921096         1.040107
 C        -1.839857         0.952326         0.527501
 C        -1.910036         1.631510         1.852818
 C        -0.543249         2.365293         1.693511
 O        -2.909233         2.351645         2.566833
 C        -2.337007         1.695790         3.839257
 C        -1.654052         0.530777         2.935813
 C        -0.142732         0.145226         2.324021
 H         0.801217         1.488902        -0.462065
 H        -1.916713         1.624547        -0.310395
 H        -2.300804         0.018755         0.261838
 H        -0.663833         3.162170         1.049751
 H        -0.112140         2.598012         2.692899
 H        -1.730725         2.505951         4.377062
 H        -3.004983         1.212115         4.609785
 H        -2.309973        -0.360378         3.009957
 H         0.732013         0.546096         2.935678
 H        -0.131146        -0.902420         2.025548
