19
Iteration:  2362
 O         0.894224         0.856216         0.065856
 C        -0.200628         0.990122         0.934509
 C        -1.618247         0.849752         0.400085
 C        -1.930304         1.724217         1.913301
 C        -0.527386         2.380501         1.557202
 O        -3.130419         2.281390         2.848181
 C        -2.372961         1.608188         3.922291
 C        -1.719072         0.683499         2.906243
 C        -0.161880         0.191691         2.374380
 H         0.796769        -0.062884        -0.386013
 H        -2.027555         1.367274        -0.541459
 H        -1.880416        -0.214484         0.319936
 H        -0.377804         3.229716         0.930771
 H         0.062937         2.582977         2.431375
 H        -1.816977         2.392451         4.494108
 H        -2.939123         1.011233         4.704310
 H        -2.391945        -0.182035         2.870348
 H         0.572636         0.732521         2.879729
 H         0.081763        -0.962197         2.378358
