19
Iteration:  2940charge 0 multiplicity 1
 O         0.845729         0.732833         0.182586
 C        -0.240325         0.986139         0.985954
 C        -1.664251         0.842380         0.418578
 C        -2.034874         1.565799         1.856823
 C        -0.709524         2.435467         1.570893
 O        -3.032135         2.246576         2.724282
 C        -2.193644         1.705758         3.835789
 C        -1.572335         0.704967         2.921746
 C        -0.187260         0.248229         2.451753
 H         1.011251         1.400915        -0.450805
 H        -1.904656         1.517998        -0.374241
 H        -1.916401        -0.098479         0.118208
 H        -0.732615         3.155910         0.719130
 H        -0.225711         2.761928         2.508007
 H        -1.734158         2.487848         4.363485
 H        -2.701924         1.029287         4.577763
 H        -2.220631        -0.201592         2.853368
 H         0.677150         0.519533         3.086867
 H        -0.107544        -0.891790         2.393996
