19
Iteration:  2066charge 0 multiplicity 1
 O         0.836513         0.764900         0.138639
 C        -0.248771         1.062448         1.026913
 C        -1.759682         1.018397         0.481019
 C        -1.964307         1.606191         1.892063
 C        -0.712838         2.450256         1.573822
 O        -3.012212         2.195561         2.696253
 C        -2.250308         1.602926         3.781926
 C        -1.511337         0.574902         2.924252
 C        -0.154137         0.261650         2.411819
 H         1.074594        -0.125836         0.341548
 H        -1.867327         1.693070        -0.333708
 H        -2.383553         0.210418         0.216997
 H        -0.905194         3.283104         0.851532
 H         0.049557         2.907055         2.312415
 H        -1.566506         2.254791         4.287532
 H        -3.046423         1.206666         4.496503
 H        -2.191631        -0.313994         2.797939
 H         0.646407         0.631076         3.048440
 H         0.154966        -0.812996         2.319973
