19
Iteration:  1957
 O         0.816265         0.896923         0.162281
 C        -0.219314         0.957809         1.067678
 C        -1.732985         0.912987         0.490513
 C        -2.001678         1.706062         1.791514
 C        -0.660893         2.408711         1.570663
 O        -3.125434         2.163483         2.776519
 C        -2.209458         1.709697         3.834276
 C        -1.557428         0.626431         2.769959
 C        -0.090856         0.180138         2.442572
 H         1.090762        -0.046967        -0.095141
 H        -1.530228         1.444683        -0.434381
 H        -2.193410        -0.051359         0.255130
 H        -0.570638         3.359990         0.919689
 H        -0.078105         2.673304         2.556981
 H        -1.581721         2.616553         4.187582
 H        -2.810048         1.024776         4.595211
 H        -2.339680        -0.188598         2.928533
 H         0.790190         0.342571         2.995438
 H        -0.228034        -0.935135         2.265977
