19
Iteration:  1928
 O         0.894755         0.885807         0.223852
 C        -0.282836         1.045280         0.963192
 C        -1.821837         0.930109         0.574099
 C        -1.910091         1.607919         1.911455
 C        -0.637636         2.445523         1.445058
 O        -2.908523         2.213546         2.646910
 C        -2.274884         1.594646         3.912308
 C        -1.656701         0.485498         2.875981
 C        -0.200608         0.306945         2.368709
 H         1.118005        -0.073006         0.157804
 H        -1.989438         1.581863        -0.312166
 H        -2.269015        -0.117709         0.332190
 H        -0.925263         3.282666         0.861424
 H         0.028418         2.822215         2.165919
 H        -1.680207         2.364401         4.426920
 H        -3.035065         1.207949         4.532304
 H        -2.372891        -0.348617         2.749799
 H         0.594675         0.698465         3.043612
 H         0.108468        -0.772883         2.300702
