19
Iteration:  4527charge 0 multiplicity 1
 O         0.864492         0.698908         0.228617
 C        -0.253403         1.108519         1.066356
 C        -1.723451         0.887351         0.474727
 C        -1.965080         1.615081         1.873583
 C        -0.747508         2.384470         1.565540
 O        -2.994906         2.202342         2.649953
 C        -2.174971         1.698491         3.855531
 C        -1.633964         0.585557         2.946780
 C        -0.157270         0.302115         2.362037
 H         1.017906         1.401044        -0.475992
 H        -1.753813         1.461872        -0.543630
 H        -2.324109        -0.124345         0.268420
 H        -0.981201         3.133772         0.758167
 H        -0.320541         2.805319         2.394193
 H        -1.234724         2.353802         3.948619
 H        -2.854696         1.389433         4.564098
 H        -2.305216        -0.331270         2.869274
 H         0.654736         0.547307         3.049015
 H        -0.005615        -0.821074         2.185232
