19
Iteration:  3279charge 0 multiplicity 1
 O         0.908564         0.719669         0.168261
 C        -0.244366         0.941796         0.977471
 C        -1.723754         0.918939         0.514812
 C        -2.002714         1.680758         1.872816
 C        -0.645692         2.372257         1.580573
 O        -3.035192         2.181195         2.665749
 C        -2.209731         1.629197         3.858005
 C        -1.582348         0.688847         2.865865
 C        -0.228873         0.286344         2.452407
 H         0.911820         1.430176        -0.564674
 H        -1.937491         1.556133        -0.417788
 H        -2.211924        -0.055526         0.592798
 H        -0.776377         3.112387         0.842761
 H        -0.053355         2.915008         2.342093
 H        -1.596052         2.487875         4.275361
 H        -2.857056         1.201651         4.748668
 H        -2.322546        -0.126430         2.858251
 H         0.552163         0.909354         2.921248
 H        -0.093072        -0.852636         2.395371
