19
Iteration:  2464charge 0 multiplicity 1
 O         0.855448         0.876645         0.175984
 C        -0.230160         1.012412         1.063605
 C        -1.669554         0.900206         0.552226
 C        -1.919581         1.689548         1.893591
 C        -0.589812         2.452115         1.490268
 O        -3.024837         2.242364         2.660463
 C        -2.334856         1.652825         3.869854
 C        -1.573066         0.602318         3.011090
 C        -0.212500         0.085419         2.313322
 H         0.447902         0.473765        -0.567821
 H        -1.870199         1.475051        -0.310521
 H        -2.239457        -0.020215         0.563200
 H        -0.778187         3.041058         0.537895
 H         0.067727         2.821283         2.347350
 H        -1.733699         2.475397         4.275015
 H        -3.089880         1.319989         4.530561
 H        -2.207394        -0.222064         2.787113
 H         0.734349         0.192093         2.959770
 H        -0.322614        -0.971846         1.974780
