19
Iteration:  1371
 O         0.742074         0.703339         0.101996
 C        -0.226645         0.998838         1.051542
 C        -1.718812         0.931231         0.525982
 C        -1.890874         1.598169         1.883261
 C        -0.574114         2.434634         1.600216
 O        -3.047626         2.211394         2.664895
 C        -2.330569         1.722349         3.780719
 C        -1.588850         0.635921         2.947517
 C        -0.151347         0.257474         2.379108
 H         1.549249         1.060310         0.470423
 H        -1.734838         1.514412        -0.415736
 H        -2.262094        -0.017339         0.372551
 H        -0.780208         3.243127         0.855415
 H        -0.039494         2.540204         2.500903
 H        -1.642450         2.447522         4.229954
 H        -2.901378         1.337832         4.640911
 H        -2.260803        -0.267634         2.901382
 H         0.768831         0.621899         2.843302
 H        -0.102664        -0.843124         2.107499
