19
Iteration:  1343charge 0 multiplicity 1
 O         0.734904         0.903426        -0.008379
 C        -0.197881         0.906135         1.104355
 C        -1.742130         0.940398         0.526348
 C        -1.842667         1.605281         1.827556
 C        -0.611465         2.368683         1.538218
 O        -2.995597         2.193751         2.599356
 C        -2.217662         1.726678         3.858800
 C        -1.670430         0.641073         2.887573
 C        -0.255793         0.125408         2.624954
 H         1.475359         1.361276         0.331427
 H        -1.657921         1.355997        -0.471340
 H        -2.318565         0.000163         0.526853
 H        -0.636811         3.086360         0.647674
 H        -0.072094         2.777660         2.439808
 H        -1.477802         2.538332         4.158230
 H        -2.834202         1.221716         4.715930
 H        -2.490945        -0.075539         2.894235
 H         0.638693         0.576344         3.117493
 H        -0.066598        -0.943816         2.561880
