19
Iteration:  2639charge 0 multiplicity 1
 O         0.861471         0.647580         0.189399
 C        -0.286291         1.012036         0.996622
 C        -1.812726         0.892327         0.484143
 C        -1.967602         1.623450         1.880370
 C        -0.677722         2.445890         1.463920
 O        -2.993711         2.231606         2.682055
 C        -2.320435         1.643453         3.888751
 C        -1.486048         0.683149         3.004171
 C        -0.122731         0.278334         2.341834
 H         1.475964         1.389518         0.215973
 H        -2.163036         1.452427        -0.400510
 H        -2.276860        -0.148117         0.502492
 H        -0.859432         3.186915         0.657163
 H         0.005890         3.012147         2.151900
 H        -2.042473         2.526279         4.618753
 H        -2.962798         0.979642         4.451824
 H        -1.983988        -0.266006         3.045412
 H         0.827693         0.837587         2.718549
 H         0.114127        -0.769201         2.178580
