19
Iteration:  2688
 O         0.566022         0.826364         0.087702
 C        -0.258012         0.952271         1.145771
 C        -1.654686         0.697019         0.575504
 C        -1.980548         1.697664         1.764971
 C        -0.640063         2.418106         1.578084
 O        -2.989346         2.248632         2.635388
 C        -2.179162         1.630842         3.824453
 C        -1.541318         0.708566         2.823138
 C        -0.083970         0.318448         2.463088
 H         1.487188         0.627761         0.425461
 H        -1.639247         1.239267        -0.382317
 H        -1.940741        -0.310868         0.648481
 H        -0.573253         3.275599         0.876819
 H        -0.325049         2.775185         2.577009
 H        -1.735545         2.422776         4.353261
 H        -2.954996         1.172385         4.527172
 H        -2.146141        -0.225360         2.626326
 H         0.699199         0.792462         2.992681
 H        -0.117209        -0.820585         2.477599
