19
Iteration:  3452
 O         0.873553         0.782527         0.210920
 C        -0.236988         1.016486         1.060426
 C        -1.802424         0.856428         0.541553
 C        -1.955397         1.695820         1.849717
 C        -0.643626         2.371219         1.498266
 O        -2.963378         2.267197         2.662035
 C        -2.263661         1.637991         3.829996
 C        -1.630781         0.543381         2.880682
 C        -0.146011         0.299406         2.454587
 H         0.744585         1.038607        -0.670963
 H        -1.777952         1.464327        -0.428365
 H        -2.238030        -0.068272         0.654013
 H        -0.950247         3.126922         0.862978
 H        -0.253109         2.881489         2.392015
 H        -1.555171         2.281206         4.208221
 H        -3.017892         1.307965         4.604678
 H        -2.273996        -0.282050         2.663463
 H         0.824359         0.424983         2.974204
 H         0.022826        -0.799365         2.195745
