19
Iteration:  2374
 O         0.938725         0.860916         0.050642
 C        -0.205374         0.971639         0.962034
 C        -1.659457         0.877533         0.392352
 C        -1.993416         1.727883         1.862856
 C        -0.583457         2.350765         1.544572
 O        -3.074691         2.254970         2.819649
 C        -2.355643         1.585845         4.006961
 C        -1.592598         0.667280         2.889959
 C        -0.254376         0.243683         2.396884
 H         1.143113        -0.078845         0.022874
 H        -1.707038         1.636278        -0.444590
 H        -2.245241         0.002592         0.299127
 H        -0.729977         3.035004         0.685415
 H         0.103687         2.740245         2.337483
 H        -1.655245         2.306711         4.473501
 H        -3.128924         1.183406         4.677489
 H        -2.284802        -0.154570         2.709505
 H         0.560853         0.535979         3.042129
 H        -0.210561        -0.927648         2.405661
