19
Iteration:  3126charge 0 multiplicity 1
 O         0.808884         0.839165         0.154550
 C        -0.215667         0.984437         1.057452
 C        -1.753782         0.835784         0.531480
 C        -1.956151         1.644813         1.813914
 C        -0.626286         2.366033         1.533548
 O        -2.937963         2.239971         2.687626
 C        -2.306535         1.654162         3.835249
 C        -1.596124         0.620393         2.829594
 C        -0.167451         0.260810         2.532539
 H         0.556267         1.174739        -0.687763
 H        -1.800786         1.465753        -0.465112
 H        -2.243587        -0.122891         0.427069
 H        -0.808371         3.069230         0.749615
 H        -0.008688         2.727576         2.355722
 H        -1.721633         2.383532         4.339885
 H        -2.869367         1.054579         4.572772
 H        -2.318364        -0.164672         2.875029
 H         0.539596         0.725795         3.120195
 H         0.145488        -0.757671         2.436124
