19
Iteration:  1304charge 0 multiplicity 1
 O         0.848823         0.713585         0.184104
 C        -0.221402         1.010592         1.024221
 C        -1.770404         0.833661         0.519133
 C        -1.958505         1.617320         1.797642
 C        -0.737172         2.438578         1.566447
 O        -2.962745         2.359519         2.662755
 C        -2.241964         1.649716         3.875195
 C        -1.582486         0.639910         2.954331
 C        -0.155912         0.199716         2.297870
 H         1.695285         1.181101         0.477929
 H        -1.936556         1.307889        -0.458390
 H        -2.293646        -0.144743         0.523554
 H        -1.117196         3.193424         0.953872
 H        -0.272761         2.775906         2.492336
 H        -1.640380         2.314135         4.484637
 H        -2.986970         1.258412         4.494122
 H        -2.238831        -0.213487         2.869385
 H         0.628496         0.555064         2.944954
 H        -0.061175        -0.850779         2.045725
