19
Iteration:  3540charge 0 multiplicity 1
 O         0.868440         0.762506         0.185005
 C        -0.259488         0.992688         1.022156
 C        -1.741058         0.817705         0.448915
 C        -2.023906         1.589811         1.813895
 C        -0.599673         2.437748         1.587629
 O        -2.988436         2.234872         2.742240
 C        -2.278962         1.708894         3.814924
 C        -1.590787         0.644008         2.890476
 C        -0.188680         0.234383         2.432770
 H         0.871394         1.425598        -0.471336
 H        -1.800772         1.596264        -0.437017
 H        -1.949597        -0.250564         0.280906
 H        -0.735195         3.077728         0.718963
 H        -0.193955         3.070235         2.428558
 H        -1.593708         2.423696         4.361675
 H        -3.005343         1.373487         4.684805
 H        -2.238341        -0.261805         2.944739
 H         0.811450         0.580653         2.824485
 H        -0.117971        -0.882254         2.503234
