19
Iteration:  3035
 O         0.869882         0.767873         0.159361
 C        -0.236537         1.047977         1.081726
 C        -1.812959         0.817111         0.578573
 C        -1.960902         1.639197         1.814517
 C        -0.711837         2.467267         1.600674
 O        -2.887729         2.264092         2.601746
 C        -2.236203         1.606308         3.827286
 C        -1.677706         0.549620         2.887773
 C        -0.131385         0.313518         2.449677
 H         0.863364         1.388467        -0.608059
 H        -1.933431         1.461033        -0.425982
 H        -2.289240        -0.250172         0.499321
 H        -0.816974         2.925131         0.624090
 H        -0.234628         2.836330         2.488599
 H        -1.747256         2.496404         4.334019
 H        -2.920221         1.313458         4.642036
 H        -2.186749        -0.430020         2.874778
 H         0.751804         0.492525         3.008617
 H        -0.047602        -0.816941         2.304464
