19
Iteration:  4629charge 0 multiplicity 1
 O         0.786251         0.655357         0.180481
 C        -0.214061         1.085335         1.090284
 C        -1.683808         0.905658         0.546802
 C        -1.980753         1.751432         1.828961
 C        -0.535745         2.490665         1.545958
 O        -3.174804         2.083238         2.692103
 C        -2.262562         1.656839         3.827458
 C        -1.513053         0.629566         2.901266
 C        -0.124036         0.260016         2.391486
 H         0.518358         1.087003        -0.664583
 H        -1.769936         1.574577        -0.471579
 H        -2.255362         0.014728         0.326518
 H        -0.655008         3.105160         0.616485
 H         0.159037         2.927659         2.332497
 H        -1.756895         2.446531         4.224370
 H        -2.790044         1.287230         4.713597
 H        -2.138947        -0.293628         2.870220
 H         0.658211         0.683069         3.144020
 H        -0.050069        -0.793101         2.167884
