19
Iteration:  3347charge 0 multiplicity 1
 O         0.924710         0.732285         0.122520
 C        -0.229594         0.995703         1.054256
 C        -1.752343         0.890947         0.469372
 C        -1.977417         1.681557         1.785602
 C        -0.663236         2.396145         1.558364
 O        -3.013609         2.256473         2.744887
 C        -2.363620         1.640148         3.916268
 C        -1.569064         0.666532         2.861907
 C        -0.103453         0.222889         2.442939
 H         0.782737         1.177436        -0.699413
 H        -2.069208         1.264788        -0.522957
 H        -2.259897        -0.134376         0.651812
 H        -0.767279         3.126971         0.709618
 H         0.057337         2.814153         2.292502
 H        -1.640519         2.348721         4.530167
 H        -3.146116         1.251828         4.620608
 H        -2.241485        -0.242715         2.807055
 H         0.701078         0.721619         2.941203
 H        -0.146216        -0.857010         2.529452
