19
Iteration:  3098charge 0 multiplicity 1
 O         0.869016         0.755010         0.238396
 C        -0.238372         1.072668         1.012233
 C        -1.767198         0.859999         0.511529
 C        -1.998046         1.647257         1.847959
 C        -0.712794         2.464611         1.598537
 O        -2.988790         2.225460         2.631836
 C        -2.229429         1.712207         3.823897
 C        -1.573745         0.542045         2.895165
 C        -0.168386         0.187821         2.415181
 H         0.967682         1.264852        -0.548651
 H        -1.938981         1.361769        -0.352299
 H        -2.186606        -0.187758         0.526271
 H        -1.085702         3.168522         0.775395
 H        -0.038485         3.010788         2.318436
 H        -1.443007         2.461724         4.243617
 H        -2.822823         1.320004         4.631366
 H        -2.325349        -0.251094         3.132476
 H         0.899192         0.334165         2.931181
 H         0.083063        -0.792847         1.969235
