19
Iteration:  1182charge 0 multiplicity 1
 O         0.837870         0.763586         0.209646
 C        -0.212637         0.950398         1.092009
 C        -1.789492         0.858026         0.589295
 C        -2.028254         1.698213         1.763660
 C        -0.614649         2.416035         1.523489
 O        -2.991342         2.195974         2.737756
 C        -2.124929         1.647199         3.764671
 C        -1.644116         0.700649         2.779050
 C        -0.228199         0.216985         2.427623
 H         1.107220         1.633497        -0.137674
 H        -1.896503         1.327153        -0.398292
 H        -2.270532        -0.139665         0.632616
 H        -0.616344         3.110342         0.715718
 H        -0.209087         2.861190         2.433125
 H        -1.366088         2.469702         4.176171
 H        -2.703657         1.256871         4.564721
 H        -2.294540        -0.151302         2.807937
 H         0.536991         0.519907         3.173038
 H        -0.188082        -0.876363         2.397349
