19
Iteration:  3978charge 0 multiplicity 1
 O         0.841591         0.678089         0.203140
 C        -0.277994         1.021694         1.051050
 C        -1.767341         0.858788         0.542305
 C        -1.938778         1.646988         1.808963
 C        -0.591454         2.488387         1.588389
 O        -3.086571         2.282113         2.655834
 C        -2.285341         1.625645         3.799360
 C        -1.530667         0.577708         2.917788
 C        -0.114245         0.287208         2.402189
 H         0.790311         1.068213        -0.766339
 H        -1.858604         1.240602        -0.474286
 H        -2.201881        -0.092079         0.533137
 H        -0.709935         3.360088         0.953343
 H        -0.066888         2.760018         2.415602
 H        -1.800369         2.504574         4.314730
 H        -2.972288         1.256967         4.607118
 H        -2.105294        -0.342145         2.772693
 H         0.701658         0.822096         3.059106
 H         0.149197        -0.802566         2.324554
