19
Iteration:  2815charge 0 multiplicity 1
 O         0.909410         0.766964         0.186254
 C        -0.255437         0.927022         1.030402
 C        -1.966049         0.894480         0.601665
 C        -1.939139         1.684496         1.794531
 C        -0.652317         2.356716         1.547830
 O        -3.025392         2.266571         2.650632
 C        -2.342779         1.615749         3.850437
 C        -1.501560         0.687808         2.911958
 C        -0.016593         0.284932         2.440394
 H         0.664529         1.319139        -0.583597
 H        -1.971396         1.298296        -0.413122
 H        -2.553999        -0.056727         0.459263
 H        -0.654459         3.047210         0.715563
 H        -0.023519         2.779730         2.333132
 H        -1.741946         2.354119         4.355350
 H        -2.983958         1.018124         4.374275
 H        -1.863433        -0.319113         2.873586
 H         0.924425         0.574899         2.908575
 H         0.084578        -0.745985         2.266834
