19
Iteration:  4319
 O         0.842992         0.684510         0.261088
 C        -0.192426         1.071714         1.124842
 C        -1.769200         0.870106         0.531275
 C        -1.974990         1.654173         1.794999
 C        -0.690887         2.474108         1.449666
 O        -2.977085         2.259109         2.710254
 C        -2.249047         1.583937         3.880430
 C        -1.552379         0.655319         2.785504
 C        -0.152073         0.274812         2.411819
 H         0.665965         1.177651        -0.514342
 H        -2.095845         1.239278        -0.415075
 H        -2.188877        -0.197359         0.553502
 H        -0.690766         3.080471         0.363508
 H        -0.125513         2.988602         2.262720
 H        -1.626418         2.242885         4.493325
 H        -3.026771         1.070839         4.460946
 H        -2.213511        -0.237063         2.745806
 H         0.543929         0.600375         3.235782
 H        -0.180571        -0.853158         2.336927
