19
Iteration:  3475
 O         0.827779         0.736586         0.181712
 C        -0.237808         0.960785         1.022708
 C        -1.711938         0.837022         0.505632
 C        -2.024066         1.608603         1.813643
 C        -0.593536         2.488554         1.565571
 O        -2.997969         2.259102         2.693583
 C        -2.262525         1.642164         3.899659
 C        -1.596927         0.649874         2.853338
 C        -0.198832         0.288985         2.406249
 H         0.770267         0.962685        -0.801644
 H        -1.676324         1.611621        -0.338381
 H        -1.939593        -0.157565         0.408518
 H        -0.741029         3.270263         0.857061
 H        -0.047861         2.949844         2.417893
 H        -1.727551         2.310656         4.450784
 H        -3.038683         0.980906         4.425811
 H        -2.245725        -0.207177         2.943157
 H         0.651261         0.690341         3.096300
 H         0.161660        -0.836469         2.536391
