19
Iteration:  2743
 O         0.821091         0.765940         0.202521
 C        -0.297667         0.970329         0.997942
 C        -1.836717         0.875728         0.441812
 C        -1.970671         1.626370         1.828378
 C        -0.611316         2.414667         1.472532
 O        -3.043488         2.110845         2.726939
 C        -2.172697         1.760121         3.861028
 C        -1.529404         0.655472         2.957624
 C        -0.147195         0.269925         2.407852
 H         1.447513         1.477521         0.548711
 H        -1.982206         1.377637        -0.571483
 H        -2.369307        -0.060438         0.328363
 H        -0.773181         3.155920         0.649841
 H        -0.008831         2.823218         2.320415
 H        -1.577859         2.646283         4.055705
 H        -2.943513         1.443105         4.664939
 H        -2.185371        -0.266332         2.931419
 H         0.742207         0.614901         2.950276
 H        -0.068890        -0.900699         2.445160
