19
Iteration:  1112charge 0 multiplicity 1
 O         0.746217         0.911770         0.140232
 C        -0.247288         0.942118         1.040269
 C        -1.742939         0.874042         0.661712
 C        -1.899359         1.723009         1.801817
 C        -0.483140         2.398090         1.561110
 O        -3.023259         2.227708         2.671748
 C        -2.336588         1.671794         3.810658
 C        -1.599765         0.632568         2.855873
 C        -0.189485         0.152196         2.420493
 H         0.819689         0.046703        -0.255275
 H        -1.756980         1.396438        -0.321713
 H        -2.282041        -0.095711         0.632710
 H        -0.312580         3.108601         0.614684
 H         0.119309         2.844855         2.403427
 H        -1.644489         2.351533         4.367950
 H        -3.108956         1.299166         4.583929
 H        -2.279994        -0.241264         2.560826
 H         0.730377         0.538476         2.972480
 H         0.064023        -0.976979         2.427468
