19
Iteration:   743charge 0 multiplicity 1
 O         0.803338         0.780482         0.040936
 C        -0.238682         0.956113         1.005940
 C        -1.791655         0.974500         0.442289
 C        -1.885477         1.740499         1.816932
 C        -0.544219         2.293365         1.662952
 O        -2.947028         2.264276         2.669696
 C        -2.359987         1.634265         3.841645
 C        -1.612047         0.627197         2.870820
 C        -0.201364         0.216271         2.524434
 H         1.566555         0.599277         0.553644
 H        -1.860024         1.657068        -0.483175
 H        -2.467180         0.076376         0.226702
 H        -0.554123         3.128843         1.085026
 H         0.018109         2.551548         2.565101
 H        -1.927271         2.462002         4.520675
 H        -3.148358         1.145268         4.510964
 H        -2.313054        -0.223720         2.593820
 H         0.505094         0.732657         3.233570
 H         0.018980        -0.930645         2.633021
