19
Iteration:  4880charge 0 multiplicity 1
 O         0.788439         0.953106         0.126001
 C        -0.286232         0.890127         1.028934
 C        -1.749379         0.852679         0.627702
 C        -1.889486         1.631792         1.842371
 C        -0.598032         2.381100         1.544956
 O        -3.074129         2.155147         2.602281
 C        -2.206431         1.690661         3.797262
 C        -1.553064         0.698303         2.901468
 C        -0.195682         0.227319         2.441511
 H         1.290426         0.097804         0.178665
 H        -1.975382         1.376971        -0.336124
 H        -2.286839        -0.076294         0.572350
 H        -0.837459         3.343327         0.844103
 H         0.038090         2.680494         2.446465
 H        -1.645203         2.600802         4.128221
 H        -2.773946         1.251664         4.570402
 H        -2.244226        -0.181361         3.050075
 H         0.660996         0.753562         2.939332
 H         0.017766        -0.819299         2.537002
