19
Iteration:  2913charge 0 multiplicity 1
 O         0.878512         0.882858         0.235244
 C        -0.207283         1.021656         1.032364
 C        -1.821719         0.811735         0.613099
 C        -1.964624         1.626105         1.917827
 C        -0.605613         2.419949         1.452558
 O        -2.992995         2.234703         2.631169
 C        -2.238123         1.734286         3.809020
 C        -1.689080         0.592026         2.960698
 C        -0.129718         0.098618         2.358586
 H         0.943747         1.572904        -0.407093
 H        -2.077364         1.276350        -0.412082
 H        -2.344043        -0.270506         0.557106
 H        -0.899412         3.069763         0.631294
 H         0.076798         2.866077         2.179544
 H        -1.525630         2.528752         4.187518
 H        -2.873262         1.358531         4.563338
 H        -2.427942        -0.164917         2.761670
 H         0.740273         0.388347         2.962193
 H         0.032778        -0.939771         2.191672
