19
Iteration:  2665charge 0 multiplicity 1
 O         0.770154         0.754171         0.001642
 C        -0.191469         0.976313         1.068598
 C        -1.781905         0.841660         0.534049
 C        -1.922311         1.671330         1.873562
 C        -0.636877         2.421884         1.411523
 O        -2.957002         2.225926         2.704808
 C        -2.321126         1.617032         3.848431
 C        -1.647193         0.571620         2.920681
 C        -0.127124         0.364271         2.581672
 H         1.663527         0.978285         0.347909
 H        -1.949178         1.398863        -0.345730
 H        -2.212088        -0.105028         0.612969
 H        -0.931784         3.175452         0.652069
 H         0.013283         2.919100         2.174172
 H        -1.664933         2.364926         4.246472
 H        -3.055086         1.323597         4.689301
 H        -2.175017        -0.361218         2.661006
 H         0.577729         0.989283         3.101473
 H         0.192663        -0.719133         2.490235
