19
Iteration:  2376
 O         0.938812         0.860112         0.056952
 C        -0.219583         0.963952         0.982687
 C        -1.682825         0.896160         0.403055
 C        -1.993748         1.716748         1.850584
 C        -0.591515         2.354906         1.536097
 O        -3.052727         2.247575         2.808314
 C        -2.345720         1.584975         3.996182
 C        -1.586313         0.653096         2.886851
 C        -0.260050         0.247791         2.402288
 H         1.202341        -0.046413         0.067585
 H        -1.643900         1.601532        -0.398968
 H        -2.260846         0.028449         0.280408
 H        -0.798109         3.075344         0.648248
 H         0.119840         2.835531         2.376208
 H        -1.670771         2.272758         4.514588
 H        -3.095433         1.224511         4.652117
 H        -2.302758        -0.132821         2.704439
 H         0.627319         0.515151         3.055264
 H        -0.259602        -0.881310         2.363123
