19
Iteration:  2123
 O         0.800096         1.017545         0.137158
 C        -0.176106         1.039205         1.110335
 C        -1.713365         0.896936         0.541006
 C        -1.981274         1.572946         1.889376
 C        -0.677227         2.441264         1.506206
 O        -2.925526         2.265117         2.608310
 C        -2.219026         1.612052         3.862918
 C        -1.641782         0.515201         2.921100
 C        -0.216349         0.115028         2.458695
 H         0.764121         0.219570        -0.470696
 H        -1.911109         1.476899        -0.336504
 H        -2.236710         0.004795         0.588908
 H        -0.824052         2.921521         0.548366
 H        -0.063617         3.068765         2.256334
 H        -1.370012         2.287508         4.213587
 H        -2.940710         1.436590         4.664549
 H        -2.289617        -0.360939         2.743728
 H         0.562291         0.272911         3.131262
 H        -0.240641        -0.931271         2.061815
