19
Iteration:  3602
 O         0.928751         0.728456         0.237469
 C        -0.281190         0.983344         1.047018
 C        -1.783461         0.871796         0.527577
 C        -1.995981         1.645677         1.857576
 C        -0.638161         2.383556         1.527731
 O        -3.022481         2.225594         2.658805
 C        -2.251674         1.661359         3.891636
 C        -1.563302         0.681377         2.865235
 C        -0.146149         0.262073         2.368600
 H         0.852754         1.382226        -0.424722
 H        -1.936723         1.429956        -0.342060
 H        -2.298452        -0.072676         0.205812
 H        -0.879094         3.026117         0.690720
 H        -0.230994         2.848356         2.489801
 H        -1.545001         2.458626         4.200387
 H        -2.899871         1.379280         4.688881
 H        -2.222585        -0.193570         2.910996
 H         0.738135         0.652510         2.818827
 H        -0.216869        -0.832009         2.202930
