19
Iteration:  2222
 O         0.788892         0.832310        -0.055178
 C        -0.159549         1.029268         1.043693
 C        -1.750942         0.874462         0.541040
 C        -1.923047         1.642083         1.793013
 C        -0.638608         2.359951         1.694646
 O        -3.041180         2.203150         2.768537
 C        -2.335898         1.655315         3.829925
 C        -1.600109         0.644701         2.827042
 C        -0.098697         0.273518         2.419003
 H         1.469008         0.215924         0.396386
 H        -1.985651         1.450881        -0.353013
 H        -2.261685         0.014665         0.446254
 H        -0.563825         3.267433         1.034464
 H        -0.191080         2.675405         2.736390
 H        -1.691043         2.298853         4.406558
 H        -3.098731         1.438852         4.538282
 H        -2.093929        -0.316002         2.826223
 H         0.600588         0.719370         3.070854
 H        -0.129489        -0.861035         2.492082
