19
Iteration:  1307
 O         0.841894         0.733494         0.177360
 C        -0.242740         1.008941         1.046216
 C        -1.759469         0.843090         0.510971
 C        -1.962805         1.595930         1.795878
 C        -0.723268         2.407144         1.573416
 O        -2.973108         2.380694         2.654236
 C        -2.235767         1.653180         3.873622
 C        -1.595836         0.635073         2.939741
 C        -0.149218         0.197300         2.306983
 H         1.648902         1.166180         0.415145
 H        -1.916446         1.235229        -0.506114
 H        -2.179394        -0.174051         0.680080
 H        -1.049064         3.332568         0.925887
 H        -0.229441         2.781801         2.470554
 H        -1.575202         2.378370         4.516851
 H        -3.056478         1.190136         4.618138
 H        -2.278590        -0.264288         2.873870
 H         0.704188         0.560588         2.928495
 H        -0.002720        -0.899833         2.004654
