19
Iteration:   786
 O         0.777359         0.702776         0.150706
 C        -0.238958         1.020708         1.084518
 C        -1.666310         0.938984         0.561495
 C        -1.932355         1.761012         1.860555
 C        -0.550161         2.494150         1.560863
 O        -2.940268         2.277296         2.690604
 C        -2.336050         1.581329         3.834107
 C        -1.682275         0.641878         2.798713
 C        -0.250602         0.125274         2.395197
 H         1.589921         1.089897         0.404233
 H        -1.729709         1.371611        -0.496993
 H        -2.128698        -0.102319         0.615106
 H        -0.655401         3.178986         0.695306
 H         0.119642         2.922469         2.259691
 H        -1.622869         2.111950         4.461306
 H        -3.151627         1.174840         4.461581
 H        -2.472395        -0.161815         2.671854
 H         0.641506         0.170798         3.064620
 H        -0.169181        -0.974242         2.057266
