19
Iteration:  1842
 O         0.838686         0.860818         0.173235
 C        -0.241332         1.044226         1.057679
 C        -1.836623         0.980663         0.467818
 C        -1.917902         1.564398         1.844154
 C        -0.670657         2.447305         1.696572
 O        -2.997668         2.133154         2.614066
 C        -2.223199         1.699304         3.759492
 C        -1.506787         0.607442         2.957845
 C        -0.167837         0.176890         2.399736
 H         0.639538        -0.067283        -0.190056
 H        -2.002422         1.619083        -0.392173
 H        -2.419651         0.042608         0.273823
 H        -0.836144         3.213439         0.916549
 H        -0.049172         2.959232         2.462652
 H        -1.659835         2.618976         4.070852
 H        -2.788683         1.336962         4.578829
 H        -2.145026        -0.258995         3.064389
 H         0.810800         0.533884         2.863973
 H        -0.291280        -0.922728         2.355647
