19
Iteration:  4036charge 0 multiplicity 1
 O         0.885250         0.782764         0.259066
 C        -0.242317         0.990138         1.050012
 C        -1.819352         0.850620         0.575386
 C        -1.955149         1.666413         1.797200
 C        -0.616731         2.330685         1.475600
 O        -3.020925         2.221825         2.689866
 C        -2.260663         1.673530         3.841712
 C        -1.587237         0.669431         2.868416
 C        -0.169943         0.283327         2.387232
 H         1.004715         1.440298        -0.390219
 H        -1.978180         1.472418        -0.263131
 H        -2.232699        -0.233287         0.593584
 H        -0.679580         3.006692         0.543637
 H        -0.081890         2.671016         2.416485
 H        -1.600951         2.412966         4.180849
 H        -2.993758         1.203707         4.618884
 H        -2.224410        -0.232185         2.754905
 H         0.763126         0.614483         2.986847
 H        -0.050859        -0.781192         2.234113
