19
Iteration:  1631charge 0 multiplicity 1
 O         0.841960         0.828946         0.162658
 C        -0.232843         1.046297         1.011107
 C        -1.707729         0.841898         0.455586
 C        -1.952078         1.656951         1.791518
 C        -0.684744         2.468068         1.574449
 O        -3.043594         2.230580         2.727719
 C        -2.151273         1.670574         3.899281
 C        -1.639561         0.581574         2.865681
 C        -0.190036         0.241569         2.392787
 H         1.151586        -0.110649         0.256219
 H        -2.060310         1.130595        -0.600485
 H        -2.283804        -0.134552         0.665691
 H        -0.683644         3.288733         0.811722
 H        -0.183036         2.901038         2.479307
 H        -1.300659         2.425994         4.279449
 H        -2.835896         1.285118         4.696255
 H        -2.429134        -0.240398         2.919380
 H         0.663119         0.551191         2.977492
 H        -0.175422        -0.904005         2.181747
