19
Iteration:    47
 O         0.938290         0.789112         0.357214
 C        -0.286822         0.983953         0.994450
 C        -1.675862         1.120575         0.441016
 C        -1.903996         1.713749         1.868796
 C        -0.452709         2.343425         1.769366
 O        -2.899551         2.333135         2.658634
 C        -2.296227         1.612566         3.778013
 C        -1.796694         0.531401         2.820240
 C        -0.412549         0.094796         2.224648
 H         0.792428        -0.041641        -0.156140
 H        -1.820784         1.893443        -0.309861
 H        -2.065401         0.104012         0.257799
 H        -0.564958         3.093735         1.114110
 H         0.287652         2.579718         2.580929
 H        -1.608190         2.235892         4.381242
 H        -3.129369         1.382967         4.437034
 H        -2.657324        -0.119914         2.500738
 H         0.314011         0.380050         2.886412
 H        -0.324031        -1.042139         2.101549
