19
Iteration:   204
 O         0.958046         0.822991         0.386335
 C        -0.272192         0.988435         1.063815
 C        -1.762813         1.081622         0.347871
 C        -1.964544         1.648129         1.805391
 C        -0.518425         2.273389         1.651825
 O        -2.873254         2.359298         2.722617
 C        -2.335588         1.734094         3.857575
 C        -1.712236         0.535966         2.764358
 C        -0.299589         0.042491         2.331709
 H         0.669904         0.651220        -0.481428
 H        -1.678123         1.746043        -0.588700
 H        -2.260383         0.089974         0.071290
 H        -0.693385         3.015638         0.755289
 H         0.060981         2.638263         2.435205
 H        -1.678649         2.251167         4.622416
 H        -3.159340         1.127580         4.243499
 H        -2.509431        -0.192292         2.893103
 H         0.569519         0.339772         3.039645
 H        -0.345159        -1.006339         2.207244
