19
Iteration:   158
 O         0.821221         0.769405         0.167842
 C        -0.132781         1.042543         1.157522
 C        -1.685905         1.062823         0.417305
 C        -1.906843         1.706796         1.738988
 C        -0.413029         2.385435         1.681779
 O        -2.982333         2.332487         2.730722
 C        -2.371118         1.573422         3.797875
 C        -1.738969         0.568501         2.832572
 C        -0.353487         0.114028         2.375332
 H         1.314260        -0.028620         0.465464
 H        -1.688247         1.834465        -0.426556
 H        -2.083627         0.013043         0.229287
 H        -0.421894         3.220217         0.933597
 H         0.100979         2.603541         2.607217
 H        -1.647928         2.290399         4.219376
 H        -3.167432         1.209632         4.495946
 H        -2.554780        -0.201174         2.693050
 H         0.394304         0.164547         3.164637
 H        -0.503344        -0.949379         2.024181
