19
Iteration:  3241
 O         0.872608         0.835524         0.233107
 C        -0.270111         0.995401         1.090158
 C        -1.797551         0.867824         0.547323
 C        -1.969982         1.637621         1.841302
 C        -0.736724         2.399810         1.568162
 O        -2.906686         2.266227         2.606524
 C        -2.222245         1.683755         3.809441
 C        -1.553216         0.635782         2.902415
 C        -0.183539         0.127560         2.379142
 H         0.710518         1.502857        -0.414599
 H        -1.842325         1.416736        -0.380294
 H        -2.085038        -0.211564         0.567719
 H        -1.023482         2.958652         0.599412
 H        -0.297166         3.056007         2.339707
 H        -1.686871         2.506260         4.280838
 H        -2.884743         1.260961         4.500508
 H        -2.143178        -0.324076         2.882212
 H         0.723410         0.221080         3.068445
 H        -0.181463        -0.967333         2.270339
