19
Iteration:  1548charge 0 multiplicity 1
 O         0.874007         0.881461         0.140141
 C        -0.185256         1.038006         1.062816
 C        -1.704205         0.754035         0.467026
 C        -1.986470         1.630712         1.856791
 C        -0.717294         2.446772         1.507422
 O        -2.904690         2.330322         2.718445
 C        -2.274017         1.631317         3.948466
 C        -1.642186         0.589576         2.889428
 C        -0.227840         0.201250         2.419542
 H         0.664735         0.050163        -0.338854
 H        -1.755572         1.342909        -0.455256
 H        -2.104008        -0.266226         0.423464
 H        -0.792137         3.004652         0.483940
 H         0.060194         3.034554         2.013163
 H        -1.728572         2.276435         4.523552
 H        -3.196962         1.333733         4.443154
 H        -2.351953        -0.187000         2.619909
 H         0.557932         0.623156         3.119068
 H        -0.071422        -0.871071         2.419818
