19
Iteration:  2587
 O         0.819377         0.920279         0.081914
 C        -0.235269         1.013904         1.039065
 C        -1.707128         0.909248         0.459637
 C        -1.958542         1.513856         1.871728
 C        -0.670911         2.334061         1.518952
 O        -2.963794         2.224685         2.661101
 C        -2.219511         1.749067         3.811130
 C        -1.648932         0.583019         2.975466
 C        -0.213925         0.186251         2.619448
 H         0.616324         0.490595        -0.731483
 H        -1.800076         1.641970        -0.263542
 H        -2.191251         0.025061         0.122456
 H        -0.898095         2.983501         0.659061
 H         0.077443         2.920795         2.195616
 H        -1.358864         2.330939         4.067042
 H        -2.824714         1.658589         4.729284
 H        -2.207302        -0.341070         2.918118
 H         0.664914         0.603012         3.187288
 H         0.019563        -0.884457         2.487471
