19
Iteration:   684charge 0 multiplicity 1
 O         0.868587         0.689376         0.124903
 C        -0.219348         0.965793         1.048019
 C        -1.624456         0.905496         0.430415
 C        -2.068225         1.734483         1.794661
 C        -0.721323         2.441716         1.704187
 O        -2.976159         2.359623         2.691687
 C        -2.209639         1.652713         3.849469
 C        -1.627582         0.570037         2.867403
 C        -0.253483         0.143801         2.388158
 H         1.700981         0.896781         0.678036
 H        -1.597780         1.621342        -0.412215
 H        -2.174848        -0.019831         0.165957
 H        -0.650665         3.240926         0.841257
 H        -0.361509         2.878191         2.592543
 H        -1.550622         2.346168         4.290203
 H        -2.948536         1.286812         4.539077
 H        -2.391200        -0.226273         2.805543
 H         0.658757         0.340332         3.047548
 H        -0.339277        -0.897365         2.194981
