19
Iteration:  3491
 O         0.832740         0.672009         0.178131
 C        -0.202928         1.048839         1.064360
 C        -1.716358         0.937672         0.495426
 C        -1.929220         1.681106         1.846431
 C        -0.652336         2.419181         1.518335
 O        -3.023375         2.188277         2.654009
 C        -2.303040         1.585114         3.859927
 C        -1.564724         0.668053         2.928327
 C        -0.148835         0.285655         2.463101
 H         0.555334         1.190758        -0.655388
 H        -1.845392         1.526744        -0.385758
 H        -2.323138        -0.081694         0.368684
 H        -0.781374         3.143809         0.622898
 H        -0.034321         2.808511         2.359065
 H        -1.665459         2.429613         4.412016
 H        -2.926652         1.266162         4.651686
 H        -2.247025        -0.211539         2.784110
 H         0.677582         0.638549         3.057630
 H        -0.207817        -0.769555         2.165836
