19
Iteration:  1654charge 0 multiplicity 1
 O         0.877095         1.005804         0.255505
 C        -0.327983         0.970151         1.067662
 C        -1.821815         0.835279         0.589810
 C        -2.003843         1.676776         1.786544
 C        -0.668220         2.325159         1.457821
 O        -2.907173         2.300326         2.702018
 C        -2.188395         1.587630         3.878194
 C        -1.577049         0.621685         2.825104
 C        -0.219009         0.183100         2.382984
 H         1.192429         0.087385         0.090657
 H        -1.745470         1.235390        -0.478950
 H        -2.226181        -0.239155         0.478543
 H        -0.761791         2.941348         0.477533
 H        -0.039907         2.926645         2.163777
 H        -1.516464         2.465232         4.294477
 H        -2.922184         1.167272         4.629170
 H        -2.330828        -0.245173         2.845812
 H         0.580038         0.541881         2.984161
 H        -0.134243        -0.942147         2.143054
