19
Iteration:  4013charge 0 multiplicity 1
 O         0.838180         0.758581         0.122036
 C        -0.215045         0.943662         1.088698
 C        -1.733650         0.857710         0.489323
 C        -1.929888         1.675503         1.841012
 C        -0.651672         2.483405         1.490319
 O        -2.975636         2.250580         2.651164
 C        -2.344692         1.669788         3.854394
 C        -1.544905         0.610487         2.947561
 C        -0.174496         0.161569         2.506338
 H         0.636520         1.569858        -0.506318
 H        -1.734260         1.434896        -0.365039
 H        -2.277245        -0.142569         0.442781
 H        -0.990893         3.152935         0.631151
 H        -0.038549         2.943653         2.227680
 H        -1.775896         2.445807         4.348350
 H        -3.128244         1.164143         4.533990
 H        -2.181377        -0.275138         2.944622
 H         0.581266         0.786020         3.119540
 H         0.182701        -0.838175         2.442268
