19
Iteration:  2747charge 0 multiplicity 1
 O         0.815396         0.766677         0.208201
 C        -0.288277         0.949228         1.034913
 C        -1.837851         0.874002         0.457898
 C        -1.976628         1.656871         1.817008
 C        -0.629207         2.423139         1.494537
 O        -3.044463         2.132044         2.733741
 C        -2.173957         1.759662         3.838338
 C        -1.513942         0.643903         2.890932
 C        -0.148764         0.252788         2.422750
 H         1.438413         1.435279         0.418537
 H        -2.037326         1.287559        -0.548740
 H        -2.329997        -0.163014         0.294857
 H        -0.783020         3.119186         0.691093
 H        -0.200527         2.863072         2.382802
 H        -1.545499         2.605394         4.144728
 H        -2.791577         1.407815         4.580530
 H        -2.135416        -0.245725         2.951985
 H         0.800843         0.571424         2.884591
 H         0.005826        -0.762943         2.453431
