19
Iteration:  3383charge 0 multiplicity 1
 O         0.814676         0.760181         0.233149
 C        -0.262881         1.034595         0.997658
 C        -1.817351         0.922610         0.494440
 C        -1.893845         1.626088         1.831246
 C        -0.681403         2.441514         1.599402
 O        -2.936619         2.167853         2.630431
 C        -2.227467         1.713916         3.816166
 C        -1.632865         0.582634         2.895379
 C        -0.146755         0.196448         2.444522
 H         0.906141         1.475881        -0.414639
 H        -1.916462         1.407477        -0.515646
 H        -2.090353        -0.213772         0.729697
 H        -0.880503         3.118938         0.702427
 H        -0.158326         2.968076         2.420090
 H        -1.381409         2.433386         4.155899
 H        -2.946764         1.586585         4.597881
 H        -2.316745        -0.293161         2.847715
 H         0.631414         0.487576         3.110411
 H        -0.006293        -0.820272         2.404888
