19
Iteration:  2543
 O         0.849630         0.761307         0.130967
 C        -0.261591         1.036035         1.001333
 C        -1.806715         0.811686         0.635530
 C        -1.947661         1.742809         1.858227
 C        -0.627362         2.509804         1.492264
 O        -3.015372         2.245270         2.698957
 C        -2.283996         1.601729         3.819083
 C        -1.601593         0.633588         2.907983
 C        -0.115638         0.175610         2.323194
 H         1.554417         0.774434         0.757510
 H        -2.083128         1.236236        -0.260050
 H        -2.142171        -0.208997         0.681723
 H        -0.553784         3.346859         0.788893
 H        -0.128548         3.031122         2.397197
 H        -1.677965         2.369368         4.218419
 H        -2.936483         1.292044         4.627642
 H        -2.273013        -0.208869         2.725855
 H         0.802294         0.241469         2.983115
 H        -0.240287        -0.891722         2.143593
