19
Iteration:  2965
 O         0.821875         0.668868         0.254210
 C        -0.240866         0.996727         1.024305
 C        -1.811393         0.937780         0.528233
 C        -1.967965         1.625749         1.870894
 C        -0.637308         2.507046         1.585716
 O        -2.989026         2.160369         2.651066
 C        -2.263432         1.668788         3.797854
 C        -1.602292         0.555373         2.868181
 C        -0.117937         0.357376         2.387724
 H         0.848744         1.159490        -0.578780
 H        -1.898424         1.371163        -0.432830
 H        -2.272407        -0.055257         0.595647
 H        -0.655448         3.107297         0.696311
 H        -0.140851         2.917267         2.474674
 H        -1.496418         2.435318         4.160927
 H        -2.802605         1.435665         4.733278
 H        -2.118403        -0.342211         2.574408
 H         0.645020         0.778756         3.152181
 H         0.194404        -0.649963         2.190604
