19
Iteration:  4692
 O         0.860704         0.840348         0.160877
 C        -0.265434         0.969959         1.038427
 C        -1.678400         0.718336         0.508031
 C        -1.948532         1.615502         1.805314
 C        -0.766679         2.414205         1.534855
 O        -2.887931         2.346412         2.736870
 C        -2.283638         1.626255         3.847827
 C        -1.637924         0.608266         2.876030
 C        -0.193859         0.242217         2.440090
 H         0.983761         1.639149        -0.458596
 H        -1.938663         1.156848        -0.457596
 H        -2.104479        -0.256178         0.414968
 H        -0.783302         3.145320         0.684703
 H        -0.341393         2.881238         2.435485
 H        -1.455962         2.380266         4.374682
 H        -2.998851         1.243341         4.513379
 H        -2.320005        -0.267912         2.850953
 H         0.510093         0.773379         3.070605
 H         0.119437        -0.801936         2.404291
