19
Iteration:  4122charge 0 multiplicity 1
 O         0.854343         0.771085         0.145909
 C        -0.229603         0.970343         1.045933
 C        -1.805827         0.838187         0.636951
 C        -1.952483         1.647176         1.865139
 C        -0.568649         2.412220         1.592153
 O        -3.013191         2.231393         2.591362
 C        -2.340373         1.716150         3.806900
 C        -1.564024         0.632208         2.896028
 C        -0.127357         0.260277         2.404475
 H         0.636148         1.220079        -0.670997
 H        -1.876487         1.406778        -0.223418
 H        -2.319609        -0.167612         0.642364
 H        -0.765156         3.078655         0.723299
 H        -0.013647         2.784294         2.316069
 H        -1.859173         2.404579         4.523278
 H        -3.083765         1.149067         4.482177
 H        -2.125649        -0.284469         3.023862
 H         0.804981         0.655465         2.937808
 H         0.144073        -0.786338         2.278182
