19
Iteration:  3360charge 0 multiplicity 1
 O         0.826583         0.790779         0.206441
 C        -0.215186         0.957648         1.027965
 C        -1.765383         0.884924         0.540718
 C        -1.958888         1.647792         1.860579
 C        -0.569746         2.351026         1.494993
 O        -3.049790         2.285253         2.686515
 C        -2.253849         1.615879         3.832473
 C        -1.599963         0.641332         2.932333
 C        -0.162613         0.271659         2.413710
 H         0.655447         1.366331        -0.603728
 H        -1.732028         1.525561        -0.358938
 H        -2.139858        -0.264974         0.282943
 H        -0.648971         2.988334         0.539788
 H        -0.171680         2.904947         2.354571
 H        -1.664092         2.446415         4.386172
 H        -2.918070         1.075516         4.472555
 H        -2.230511        -0.291204         2.910795
 H         0.640329         0.546693         3.045546
 H         0.025756        -0.737983         2.257219
