19
Iteration:  1559
 O         0.869370         0.882878         0.102343
 C        -0.225788         0.991789         1.039187
 C        -1.692395         0.822025         0.529777
 C        -1.952903         1.722355         1.836881
 C        -0.630790         2.431920         1.453644
 O        -2.975832         2.330730         2.748275
 C        -2.352889         1.594948         3.841762
 C        -1.637086         0.598978         2.929597
 C        -0.168068         0.184241         2.489085
 H         0.748131         0.034518        -0.435001
 H        -1.809838         1.075810        -0.515451
 H        -2.023035        -0.216252         0.642165
 H        -0.887326         3.143744         0.576929
 H        -0.191267         2.896745         2.336680
 H        -1.631120         2.208760         4.263844
 H        -2.979895         1.205423         4.640332
 H        -2.277039        -0.278980         2.879604
 H         0.731437         0.470990         3.094492
 H        -0.116634        -0.878884         2.270859
