19
Iteration:  4930charge 0 multiplicity 1
 O         0.894539         0.896412         0.201994
 C        -0.256288         0.993183         1.037470
 C        -1.740263         0.754838         0.547387
 C        -2.002672         1.649856         1.839245
 C        -0.738553         2.426383         1.487351
 O        -2.969418         2.273588         2.684432
 C        -2.182667         1.588041         3.849239
 C        -1.582232         0.649113         2.884563
 C        -0.197818         0.313547         2.420650
 H         0.770163         0.007715        -0.262958
 H        -1.978457         1.127566        -0.484633
 H        -2.000000        -0.311112         0.512578
 H        -0.831173         2.959867         0.654297
 H        -0.069162         2.855861         2.227563
 H        -1.595049         2.400090         4.299416
 H        -3.015395         1.296971         4.608750
 H        -2.265139        -0.179855         2.893547
 H         0.649979         0.659466         3.003061
 H        -0.120203        -0.804545         2.378273
