19
Iteration:  1296charge 0 multiplicity 1
 O         0.880733         0.668892         0.179867
 C        -0.212914         1.031070         0.972331
 C        -1.805570         0.817685         0.518976
 C        -1.969925         1.661424         1.876008
 C        -0.744143         2.478166         1.549360
 O        -2.912778         2.264543         2.702256
 C        -2.269475         1.664632         3.829908
 C        -1.540732         0.639435         2.910311
 C        -0.207220         0.246881         2.342252
 H         1.624450         1.152942         0.653026
 H        -1.932304         1.613894        -0.256520
 H        -2.363852        -0.058202         0.146495
 H        -1.033087         3.190653         0.646662
 H        -0.279680         2.945628         2.429661
 H        -1.612999         2.453495         4.423777
 H        -3.160279         1.183959         4.497352
 H        -2.247351        -0.246476         2.910831
 H         0.683068         0.472560         2.993006
 H        -0.222639        -0.899549         2.249390
