19
Iteration:  3705charge 0 multiplicity 1
 O         0.862246         0.717532         0.291731
 C        -0.219811         1.020901         1.046546
 C        -1.826338         0.851536         0.469616
 C        -1.949062         1.637757         1.842994
 C        -0.703501         2.471161         1.504291
 O        -3.004607         2.287226         2.649716
 C        -2.231075         1.616474         3.847652
 C        -1.591208         0.609318         2.855858
 C        -0.120070         0.243948         2.424552
 H         0.734339         1.356192        -0.479207
 H        -2.061078         1.320839        -0.576219
 H        -1.971002        -0.173493         0.658340
 H        -0.918157         3.256764         0.662531
 H         0.052538         2.830221         2.303674
 H        -1.504759         2.387943         4.281130
 H        -2.903181         1.322806         4.811252
 H        -2.244178        -0.288532         2.764234
 H         0.739831         0.475536         3.077128
 H        -0.015779        -0.760523         2.340152
