19
Iteration:  4804charge 0 multiplicity 1
 O         0.909511         0.870930         0.195344
 C        -0.230911         0.994810         1.078631
 C        -1.908263         0.765072         0.595436
 C        -2.015191         1.647594         1.803307
 C        -0.538762         2.410142         1.406670
 O        -2.995068         2.247396         2.730251
 C        -2.285977         1.591215         3.831239
 C        -1.569002         0.682550         2.848589
 C        -0.160445         0.292167         2.485387
 H         0.582611         0.678737        -0.662941
 H        -1.927773         1.384336        -0.391187
 H        -2.209388        -0.299986         0.623688
 H        -0.578725         3.218798         0.593368
 H         0.069525         2.872791         2.127722
 H        -1.611650         2.351152         4.485552
 H        -3.107550         0.978817         4.289401
 H        -2.146382        -0.303924         2.924528
 H         0.724841         0.606886         3.139824
 H         0.015577        -0.757679         2.276531
