19
Iteration:  2240charge 0 multiplicity 1
 O         0.772972         0.903088         0.014411
 C        -0.267612         0.973228         0.999043
 C        -1.745037         0.884806         0.466378
 C        -1.985629         1.635226         1.878516
 C        -0.596925         2.428609         1.620128
 O        -2.964697         2.266139         2.641556
 C        -2.247895         1.585564         3.879323
 C        -1.639898         0.563006         2.944337
 C        -0.186197         0.233864         2.496190
 H         1.645965         0.604564         0.411305
 H        -1.863739         1.456677        -0.474703
 H        -2.135953        -0.211090         0.440676
 H        -0.695118         3.209541         0.883008
 H         0.184355         2.651900         2.386526
 H        -1.600845         2.433695         4.227980
 H        -2.912508         1.117055         4.689633
 H        -2.305773        -0.320843         2.762320
 H         0.567837         0.784208         3.098082
 H         0.143105        -0.859450         2.465387
