19
Iteration:   342
 O         0.915590         0.783916         0.185720
 C        -0.237985         0.982673         1.058478
 C        -1.770050         1.035913         0.394545
 C        -1.908530         1.699599         1.817161
 C        -0.505707         2.371619         1.647903
 O        -2.914658         2.243832         2.699660
 C        -2.318582         1.647911         3.851169
 C        -1.763011         0.635286         2.819771
 C        -0.324680         0.137538         2.394124
 H         1.632978         0.267254         0.685095
 H        -1.903936         1.749338        -0.450206
 H        -2.380324         0.166495         0.185480
 H        -0.344522         3.112268         0.852323
 H        -0.148372         2.547319         2.724720
 H        -1.491620         2.269201         4.184967
 H        -3.006815         1.435671         4.704199
 H        -2.467277        -0.166908         2.538975
 H         0.399500         0.280834         3.200569
 H        -0.421539        -1.006966         2.206459
