19
Iteration:  2776
 O         0.762959         0.751140         0.108707
 C        -0.220039         1.070888         1.077586
 C        -1.662219         0.726483         0.537056
 C        -1.979616         1.629142         1.857287
 C        -0.682323         2.482574         1.493038
 O        -2.951146         2.308595         2.670136
 C        -2.203341         1.630921         3.859642
 C        -1.635578         0.523117         2.878041
 C        -0.203897         0.317497         2.472941
 H         1.158281         1.575395        -0.279615
 H        -1.742527         1.147542        -0.517281
 H        -2.038741        -0.296922         0.611691
 H        -1.053589         3.244042         0.760122
 H        -0.189173         2.946606         2.365334
 H        -1.423859         2.292567         4.296900
 H        -2.964979         1.448095         4.748568
 H        -2.312364        -0.379294         2.886970
 H         0.623953         0.540719         3.166066
 H        -0.065087        -0.823916         2.191807
