19
Iteration:  3559charge 0 multiplicity 1
 O         0.863877         0.820795         0.212366
 C        -0.204484         0.979825         1.070123
 C        -1.713232         0.840033         0.526640
 C        -1.974774         1.631553         1.835380
 C        -0.741797         2.385963         1.513500
 O        -2.985917         2.289935         2.656047
 C        -2.194724         1.661545         3.864950
 C        -1.670170         0.605021         2.903787
 C        -0.173853         0.202203         2.397661
 H         0.919233         1.443968        -0.490497
 H        -1.714885         1.335376        -0.478125
 H        -2.285591        -0.149995         0.351652
 H        -0.912142         3.016856         0.634715
 H         0.015395         2.766385         2.304689
 H        -1.460086         2.418061         4.359760
 H        -2.831148         1.431378         4.789660
 H        -2.283286        -0.287753         2.717224
 H         0.528983         0.552424         3.123886
 H        -0.009517        -0.753823         2.253098
