19
Iteration:  4655
 O         0.892913         0.758661         0.209742
 C        -0.243555         1.005799         0.983016
 C        -1.799344         0.905587         0.570670
 C        -1.907796         1.680747         1.849001
 C        -0.663319         2.439856         1.491136
 O        -2.985125         2.185882         2.639173
 C        -2.287694         1.612910         3.810280
 C        -1.527503         0.642702         2.960675
 C        -0.178958         0.244056         2.438519
 H         0.676982         1.010423        -0.697374
 H        -2.097318         1.595407        -0.257508
 H        -2.391861        -0.072166         0.499370
 H        -0.891572         3.146730         0.682899
 H        -0.101982         2.922676         2.503175
 H        -1.756553         2.324515         4.491737
 H        -3.067410         1.119477         4.527042
 H        -2.203735        -0.201037         2.834853
 H         0.635893         0.745578         2.946307
 H        -0.081870        -0.867992         2.449242
