19
Iteration:  4045
 O         0.916730         0.742777         0.292518
 C        -0.237829         0.997708         1.030403
 C        -1.818256         0.822974         0.553539
 C        -1.979812         1.666784         1.824906
 C        -0.644230         2.413570         1.520796
 O        -2.985096         2.195472         2.686587
 C        -2.243922         1.705767         3.819237
 C        -1.551743         0.650568         2.856218
 C        -0.236752         0.238128         2.328766
 H         0.888826         1.462873        -0.312118
 H        -2.039891         1.254621        -0.354384
 H        -2.275101        -0.189495         0.514582
 H        -0.755939         3.253311         0.828646
 H        -0.086653         2.760983         2.295600
 H        -1.567483         2.515933         4.247576
 H        -2.897927         1.205646         4.648561
 H        -2.275520        -0.137716         2.942322
 H         0.488063         0.891503         2.933873
 H         0.107401        -0.763301         2.187494
