19
Iteration:  4939
 O         0.828149         0.902660         0.247235
 C        -0.265152         1.000320         1.076332
 C        -1.799806         0.742247         0.503478
 C        -1.974155         1.645629         1.774088
 C        -0.593715         2.468085         1.426409
 O        -2.956257         2.188930         2.710840
 C        -2.215570         1.625740         3.857195
 C        -1.647837         0.632503         2.866488
 C        -0.181599         0.337951         2.449904
 H         0.765890         0.081098        -0.337160
 H        -1.910829         1.190094        -0.450546
 H        -2.138215        -0.298987         0.665323
 H        -0.690225         3.144901         0.671657
 H        -0.039713         2.833998         2.225920
 H        -1.399293         2.347821         4.212670
 H        -2.866957         1.252325         4.789578
 H        -2.219644        -0.325443         2.861401
 H         0.591415         0.873062         2.992864
 H         0.028054        -0.765880         2.395589
