19
Iteration:   992charge 0 multiplicity 1
 O         0.805958         0.796262         0.181575
 C        -0.280940         1.023393         0.987332
 C        -1.741938         0.910767         0.419322
 C        -1.935471         1.581738         1.850406
 C        -0.602847         2.280253         1.754785
 O        -2.846309         2.292214         2.642730
 C        -2.299324         1.721344         3.822727
 C        -1.608835         0.628278         2.887078
 C        -0.268619         0.167381         2.369242
 H         0.998954         1.668949        -0.267682
 H        -1.916544         1.480741        -0.505243
 H        -2.275332        -0.056737         0.510185
 H        -0.762981         3.248883         1.196972
 H        -0.063159         2.518967         2.575544
 H        -1.523642         2.406745         4.370290
 H        -3.235754         1.480192         4.438161
 H        -2.326895        -0.264322         2.809655
 H         0.641819         0.490293         2.926517
 H        -0.092341        -0.931123         2.463806
