19
Iteration:  2360
 O         0.883818         0.851530         0.071527
 C        -0.216890         0.990935         0.949632
 C        -1.631209         0.851281         0.416472
 C        -1.922139         1.715769         1.898848
 C        -0.504307         2.398223         1.566385
 O        -3.124323         2.281266         2.842533
 C        -2.368797         1.616629         3.897084
 C        -1.723320         0.665735         2.910255
 C        -0.148360         0.190653         2.372216
 H         0.751471         0.017670        -0.447465
 H        -2.000638         1.350905        -0.551881
 H        -1.837085        -0.299199         0.352285
 H        -0.413201         3.247820         0.998910
 H        -0.010146         2.603216         2.411464
 H        -1.828356         2.380965         4.526672
 H        -2.942326         1.006378         4.704531
 H        -2.464022        -0.181122         2.857702
 H         0.627555         0.729947         2.854465
 H         0.081277        -0.900595         2.340092
