19
Iteration:  4383
 O         0.802980         0.734268         0.190861
 C        -0.201349         0.987140         1.044877
 C        -1.666886         0.890131         0.534695
 C        -1.926284         1.643379         1.808244
 C        -0.755871         2.502521         1.631804
 O        -3.031120         2.162847         2.629638
 C        -2.248109         1.764819         3.826548
 C        -1.495827         0.640770         2.940872
 C        -0.214452         0.167567         2.401467
 H         0.875034         1.468113        -0.510845
 H        -1.941400         1.430190        -0.376519
 H        -2.097302        -0.234295         0.582188
 H        -0.930914         3.216771         0.765295
 H        -0.082876         2.785350         2.442912
 H        -1.538991         2.552164         4.067926
 H        -2.923336         1.441480         4.508721
 H        -2.176054        -0.237317         2.951849
 H         0.785616         0.172972         2.861353
 H        -0.275952        -0.889612         2.122557
