19
Iteration:  2411charge 0 multiplicity 1
 O         0.815279         0.873797         0.260046
 C        -0.335648         1.033682         1.105902
 C        -1.911624         0.907592         0.550602
 C        -1.949024         1.667831         1.836680
 C        -0.606010         2.410553         1.686012
 O        -2.931672         2.309898         2.602012
 C        -2.145635         1.587942         3.761909
 C        -1.619135         0.456051         2.784910
 C        -0.153423         0.238170         2.344816
 H         1.257752         0.105484         0.547979
 H        -2.003214         1.224720        -0.435631
 H        -2.368605        -0.099782         0.517801
 H        -0.908672         3.253812         0.935454
 H         0.060929         2.976021         2.542505
 H        -1.275357         2.165164         4.034535
 H        -2.850877         1.584849         4.558597
 H        -2.227862        -0.405770         2.455239
 H         0.748451         0.625593         2.989913
 H         0.010373        -0.763892         2.011588
