19
Iteration:  2160charge 0 multiplicity 1
 O         0.964860         0.906867         0.192812
 C        -0.220780         0.985995         0.983866
 C        -1.824444         0.883115         0.474910
 C        -2.038303         1.706625         1.802547
 C        -0.722621         2.336723         1.571625
 O        -3.058235         2.311625         2.761363
 C        -2.194028         1.538464         3.907534
 C        -1.579325         0.592579         2.834702
 C        -0.152226         0.278609         2.360678
 H         0.968610        -0.095783        -0.053891
 H        -1.957244         1.437710        -0.545741
 H        -2.431598        -0.135309         0.472098
 H        -0.645061         3.154203         0.824943
 H        -0.066860         2.564790         2.338061
 H        -1.280896         2.199697         4.321433
 H        -2.937898         1.241852         4.664345
 H        -2.150286        -0.343228         2.806752
 H         0.780455         0.615858         2.970612
 H        -0.067889        -0.767726         2.505475
