19
Iteration:  4376
 O         0.855581         0.745074         0.137147
 C        -0.261375         1.009784         1.056987
 C        -1.712755         0.820415         0.485605
 C        -1.969376         1.593602         1.858810
 C        -0.709555         2.478188         1.681314
 O        -3.032148         2.192409         2.599808
 C        -2.234544         1.753067         3.795789
 C        -1.532967         0.664420         2.988136
 C        -0.158779         0.188343         2.388142
 H         0.713692         1.438121        -0.606543
 H        -1.636601         1.488357        -0.425089
 H        -2.151467        -0.154413         0.456660
 H        -0.812966         3.451925         0.930451
 H        -0.013223         2.818435         2.446952
 H        -1.609756         2.540471         4.238222
 H        -2.983214         1.504891         4.647730
 H        -2.145464        -0.265278         3.071870
 H         0.783999         0.231569         2.982138
 H        -0.428833        -0.934372         2.209407
