19
Iteration:  4578charge 0 multiplicity 1
 O         0.903489         0.839963         0.237325
 C        -0.294545         0.990808         1.050085
 C        -1.849856         0.856802         0.583857
 C        -1.970506         1.609704         1.841040
 C        -0.632321         2.358732         1.450388
 O        -2.942126         2.300230         2.667140
 C        -2.289652         1.606601         3.824347
 C        -1.605759         0.593588         2.869312
 C        -0.123568         0.262948         2.421187
 H         0.759415         1.625864        -0.408684
 H        -2.100794         1.340986        -0.292732
 H        -2.216351        -0.148048         0.344615
 H        -0.821260         2.957933         0.568950
 H         0.090938         2.877140         2.234758
 H        -1.542791         2.316616         4.368096
 H        -2.915346         1.172085         4.734535
 H        -2.095101        -0.367842         2.902773
 H         0.688375         0.673932         3.033677
 H        -0.093753        -0.822217         2.363668
