19
Iteration:  4239
 O         0.831420         0.816917         0.128834
 C        -0.247289         1.034626         1.067159
 C        -1.712482         0.796253         0.585119
 C        -1.949533         1.611743         1.823957
 C        -0.615749         2.383307         1.630077
 O        -3.029494         2.217587         2.590344
 C        -2.209338         1.730243         3.863766
 C        -1.618322         0.676082         2.905046
 C        -0.217951         0.191162         2.395423
 H         0.713180         1.387228        -0.592313
 H        -1.736071         1.245900        -0.397406
 H        -1.950967        -0.279140         0.645444
 H        -0.795972         3.100492         0.776812
 H         0.088622         2.787515         2.510077
 H        -1.697660         2.602002         4.224155
 H        -2.784308         1.344631         4.571372
 H        -2.290300        -0.163037         3.006390
 H         0.643403         0.407664         3.009054
 H        -0.235892        -0.847857         2.292553
