19
Iteration:  4392charge 0 multiplicity 1
 O         0.811233         0.715573         0.223938
 C        -0.226662         1.036049         1.079954
 C        -1.691562         0.905493         0.576235
 C        -1.939706         1.658689         1.848926
 C        -0.682467         2.478040         1.527276
 O        -3.023767         2.129971         2.655351
 C        -2.233234         1.744930         3.810177
 C        -1.567251         0.655168         2.898987
 C        -0.170644         0.135601         2.349414
 H         0.995448         1.488253        -0.418147
 H        -1.995525         1.355451        -0.336221
 H        -2.086962        -0.149680         0.475176
 H        -0.822915         3.078576         0.746236
 H        -0.344291         3.073142         2.412546
 H        -1.588142         2.641584         4.172047
 H        -2.816123         1.364382         4.702565
 H        -2.344395        -0.092069         2.834207
 H         0.684604         0.421548         2.966806
 H        -0.202829        -0.867001         2.089298
