19
Iteration:  2286
 O         0.919774         0.722852         0.164544
 C        -0.222274         1.021745         0.916475
 C        -1.744662         0.826657         0.498713
 C        -1.985006         1.665882         1.827777
 C        -0.633363         2.476127         1.631872
 O        -3.113015         2.246045         2.749988
 C        -2.147397         1.625444         3.898629
 C        -1.585661         0.684917         2.843928
 C        -0.264029         0.199256         2.334155
 H         1.476866         1.499884         0.128773
 H        -2.040019         1.381726        -0.412806
 H        -2.142525        -0.163012         0.524895
 H        -0.822416         3.317026         0.910900
 H        -0.254952         2.966874         2.637436
 H        -1.471065         2.243556         4.464949
 H        -2.846415         1.058350         4.547883
 H        -2.286717        -0.172788         2.809759
 H         0.560701         0.564859         2.881031
 H        -0.156394        -0.982561         2.253600
