19
Iteration:   424charge 0 multiplicity 1
 O         0.958901         0.801423         0.258906
 C        -0.238730         0.929242         1.103612
 C        -1.781109         0.957237         0.437768
 C        -1.939391         1.745916         1.827485
 C        -0.534520         2.331364         1.563184
 O        -2.877490         2.397590         2.741696
 C        -2.387453         1.538782         3.806023
 C        -1.751211         0.582618         2.783461
 C        -0.213732         0.195277         2.426822
 H         0.506966         0.561564        -0.537103
 H        -1.687791         1.471063        -0.547832
 H        -2.478159         0.087021         0.292446
 H        -0.641583         3.181012         0.847414
 H         0.091318         2.766601         2.351702
 H        -1.731438         2.169785         4.457632
 H        -3.193306         1.181988         4.457505
 H        -2.399717        -0.301509         2.726316
 H         0.567847         0.379041         3.201901
 H        -0.233800        -0.818706         2.168273
