19
Iteration:   324
 O         0.807650         0.784544         0.229496
 C        -0.193752         0.960423         1.150474
 C        -1.737115         1.026180         0.491592
 C        -1.950616         1.760425         1.783048
 C        -0.533878         2.413892         1.601398
 O        -2.947649         2.418869         2.664661
 C        -2.232163         1.509636         3.812964
 C        -1.693935         0.575342         2.772797
 C        -0.334771         0.037634         2.400826
 H         1.681646         0.717811         0.748002
 H        -1.541896         1.527586        -0.469348
 H        -2.211454         0.025342         0.370415
 H        -0.648232         3.019970         0.648564
 H         0.052780         2.792354         2.350811
 H        -1.611159         2.160110         4.439060
 H        -3.058959         1.070183         4.350364
 H        -2.501298        -0.158550         2.616388
 H         0.422825         0.385899         3.098631
 H        -0.294151        -0.969568         2.183524
