19
Iteration:  3295
 O         0.829792         0.688881         0.193386
 C        -0.239364         0.992474         1.104127
 C        -1.807060         0.934238         0.493526
 C        -1.913122         1.670602         1.768285
 C        -0.607897         2.486465         1.507809
 O        -3.050294         2.173967         2.730166
 C        -2.269525         1.647319         3.844198
 C        -1.588139         0.601921         2.883021
 C        -0.093783         0.279618         2.454418
 H         0.803034         1.272513        -0.581135
 H        -1.802536         1.548898        -0.407788
 H        -2.416539        -0.017191         0.082979
 H        -0.704549         3.171371         0.579775
 H        -0.106924         2.808274         2.427943
 H        -1.540217         2.363058         4.255383
 H        -2.923350         1.254479         4.561195
 H        -2.296495        -0.261077         2.772593
 H         0.599099         0.683255         3.185333
 H         0.081580        -0.768208         2.489671
