19
Iteration:  1285charge 0 multiplicity 1
 O         0.881922         0.667877         0.165640
 C        -0.312081         1.001086         1.021357
 C        -1.790473         0.979502         0.475436
 C        -1.950583         1.620694         1.860877
 C        -0.685352         2.467666         1.443250
 O        -2.958102         2.185543         2.724501
 C        -2.280118         1.653975         3.872491
 C        -1.575764         0.646090         2.903608
 C        -0.196700         0.268169         2.443392
 H         1.714887         0.963777         0.653986
 H        -1.968217         1.676650        -0.381569
 H        -2.121572        -0.062886         0.319654
 H        -0.684727         3.161850         0.482408
 H        -0.054277         3.045575         2.132183
 H        -1.619909         2.511027         4.367945
 H        -2.970296         1.158583         4.749796
 H        -2.252786        -0.261032         2.814867
 H         0.751366         0.579246         2.952617
 H        -0.148911        -0.860213         2.221128
