19
Iteration:  2630charge 0 multiplicity 1
 O         0.788584         0.683626         0.254503
 C        -0.298254         1.023592         1.016130
 C        -1.808189         0.818134         0.500362
 C        -1.973360         1.676850         1.821418
 C        -0.620263         2.434967         1.502061
 O        -3.013523         2.215742         2.710055
 C        -2.285701         1.646018         3.853442
 C        -1.444683         0.688299         2.917527
 C        -0.109142         0.329672         2.308458
 H         1.377779         1.388121        -0.047947
 H        -2.039361         1.173177        -0.443926
 H        -2.093740        -0.219685         0.559785
 H        -0.903682         3.231635         0.791998
 H        -0.091292         2.673194         2.499163
 H        -1.895988         2.554269         4.461510
 H        -3.017193         1.070654         4.490954
 H        -2.124984        -0.132091         2.980586
 H         0.919330         0.476189         2.791893
 H        -0.120667        -0.798091         2.251428
