19
Iteration:  4924charge 0 multiplicity 1
 O         0.922477         0.883561         0.169960
 C        -0.252362         1.025465         0.998348
 C        -1.695073         0.760343         0.563459
 C        -2.010389         1.638084         1.869714
 C        -0.809204         2.354628         1.523381
 O        -2.991134         2.325117         2.678222
 C        -2.214439         1.645463         3.859535
 C        -1.534694         0.635787         2.908961
 C        -0.181372         0.252129         2.412093
 H         0.914864        -0.024821        -0.240227
 H        -1.930898         1.259438        -0.400263
 H        -2.104179        -0.267181         0.530866
 H        -0.980954         3.042691         0.506480
 H        -0.260530         3.053601         2.258579
 H        -1.604045         2.396543         4.373752
 H        -2.944595         1.169850         4.448638
 H        -2.282197        -0.189230         2.757065
 H         0.681054         0.527226         3.064104
 H        -0.077003        -0.818577         2.308780
