19
Iteration:   542
 O         0.918570         0.752285         0.182448
 C        -0.211941         0.938736         1.035952
 C        -1.663132         0.896844         0.511425
 C        -2.009585         1.707360         1.829957
 C        -0.647658         2.341523         1.601090
 O        -2.888832         2.378332         2.698538
 C        -2.283418         1.661092         3.826896
 C        -1.709929         0.632413         2.917501
 C        -0.337807         0.109669         2.308059
 H         1.549446         1.510717         0.302446
 H        -1.756503         1.389200        -0.490118
 H        -2.101680        -0.158468         0.397384
 H        -0.623089         3.293311         0.892017
 H        -0.264351         2.654130         2.509589
 H        -1.670677         2.396370         4.402376
 H        -3.094060         1.292502         4.459755
 H        -2.463983        -0.177912         2.815516
 H         0.550507         0.428405         2.972727
 H        -0.298637        -0.950503         2.071898
