19
Iteration:  3257charge 0 multiplicity 1
 O         0.827302         0.785889         0.239644
 C        -0.165935         1.064392         1.065024
 C        -1.787295         0.801822         0.501569
 C        -1.943306         1.578199         1.816500
 C        -0.646832         2.446769         1.517865
 O        -3.002583         2.258613         2.694510
 C        -2.274179         1.730761         3.810448
 C        -1.603333         0.566725         2.956832
 C        -0.155846         0.189500         2.360674
 H         0.883314         1.433216        -0.435586
 H        -1.957600         1.466440        -0.423054
 H        -2.343307        -0.090261         0.550875
 H        -0.601675         3.178906         0.780990
 H        -0.115937         2.869575         2.388603
 H        -1.501276         2.348851         4.338109
 H        -3.082093         1.419938         4.607120
 H        -2.259059        -0.319583         2.905566
 H         0.758803         0.534568         2.845201
 H        -0.116692        -0.875784         1.955268
