19
Iteration:  2331charge 0 multiplicity 1
 O         0.789891         0.831112         0.180073
 C        -0.222132         1.016118         1.132659
 C        -1.805334         1.000500         0.571951
 C        -1.889740         1.671911         1.884446
 C        -0.705603         2.408399         1.583271
 O        -2.906966         2.226321         2.554547
 C        -2.227884         1.563084         3.777683
 C        -1.568676         0.582219         2.875534
 C        -0.162020         0.167622         2.458996
 H         0.335228         0.801004        -0.638572
 H        -1.969302         1.717656        -0.254473
 H        -2.224651         0.060440         0.471176
 H        -0.811600         3.122215         0.685161
 H        -0.166688         2.988883         2.489975
 H        -1.677944         2.351490         4.258370
 H        -2.910931         1.091009         4.468118
 H        -2.328308        -0.202178         2.786369
 H         0.677567         0.441431         3.094585
 H        -0.127261        -0.988870         2.273574
