19
Iteration:  4656charge 0 multiplicity 1
 O         0.897660         0.759659         0.211083
 C        -0.251469         1.012181         0.985236
 C        -1.802891         0.895175         0.559457
 C        -1.911789         1.678182         1.849907
 C        -0.664688         2.433953         1.497160
 O        -2.983385         2.201128         2.638088
 C        -2.292932         1.609123         3.811384
 C        -1.520897         0.634790         2.959826
 C        -0.178229         0.249277         2.436672
 H         0.671443         1.024590        -0.726980
 H        -2.066494         1.596530        -0.208509
 H        -2.384874        -0.078297         0.507694
 H        -0.888097         3.146960         0.689901
 H        -0.108040         2.909134         2.466709
 H        -1.734942         2.351847         4.514330
 H        -3.049378         1.103681         4.500946
 H        -2.190898        -0.222299         2.872820
 H         0.612534         0.720821         2.954712
 H        -0.068194        -0.861122         2.447620
