19
Iteration:   816
 O         0.881084         0.714182         0.237728
 C        -0.281132         0.939452         1.004626
 C        -1.824311         1.088580         0.392889
 C        -1.988167         1.670165         1.863149
 C        -0.536495         2.284735         1.623422
 O        -3.043856         2.249098         2.692066
 C        -2.223194         1.719165         3.853200
 C        -1.693847         0.599374         2.862484
 C        -0.158032         0.147893         2.385063
 H         1.609554         1.338682         0.513598
 H        -1.859927         1.782834        -0.443982
 H        -2.413403         0.225754         0.095801
 H        -0.530781         3.181491         0.719094
 H         0.185747         2.570757         2.372419
 H        -1.438643         2.284756         4.314771
 H        -2.927141         1.403319         4.613970
 H        -2.359317        -0.265437         2.784454
 H         0.602805         0.738092         2.925225
 H         0.127659        -0.853474         2.212191
