19
Iteration:  1078
 O         0.779865         0.777057        -0.016781
 C        -0.222526         0.986173         1.011108
 C        -1.695364         0.963380         0.525456
 C        -1.961675         1.603547         1.842430
 C        -0.601404         2.423757         1.608063
 O        -2.957457         2.315315         2.683962
 C        -2.351620         1.661408         3.845343
 C        -1.609534         0.566500         2.918832
 C        -0.148144         0.189482         2.506036
 H         1.283303         0.138222         0.456946
 H        -1.754493         1.699187        -0.287387
 H        -2.181602         0.017663         0.266726
 H        -0.671547         3.207449         0.783471
 H        -0.263779         2.832680         2.657545
 H        -1.648081         2.334255         4.346596
 H        -3.195434         1.241598         4.492932
 H        -2.359654        -0.266002         2.769270
 H         0.591707         0.726775         3.174892
 H         0.062092        -0.917379         2.368740
