19
Iteration:  2178
 O         0.878376         0.840412         0.190690
 C        -0.217913         1.035179         1.044465
 C        -1.882699         0.971428         0.539274
 C        -1.956789         1.622920         1.875457
 C        -0.599437         2.491265         1.480733
 O        -2.971156         2.139269         2.729639
 C        -2.273750         1.599591         3.839206
 C        -1.588406         0.588836         2.853935
 C        -0.186208         0.231857         2.386389
 H         1.332748        -0.064421         0.145984
 H        -2.099073         1.595397        -0.315929
 H        -2.358982         0.075526         0.399768
 H        -0.758577         3.154766         0.614365
 H         0.014750         3.157521         2.210122
 H        -1.645198         2.345523         4.320222
 H        -2.807120         1.108546         4.626773
 H        -2.384274        -0.148527         2.727638
 H         0.550699         0.654040         3.013603
 H         0.040857        -0.824798         2.102651
