19
Iteration:  2137
 O         0.830110         1.004497         0.212222
 C        -0.292125         1.029706         1.068910
 C        -1.739294         0.814276         0.460704
 C        -1.943792         1.616069         1.795312
 C        -0.677782         2.384202         1.550971
 O        -2.877521         2.265513         2.737747
 C        -2.198559         1.652921         3.854938
 C        -1.650714         0.530825         2.878686
 C        -0.240056         0.167993         2.369794
 H         0.626067         0.248677        -0.307122
 H        -1.671986         1.409877        -0.532062
 H        -1.990906        -0.283120         0.226563
 H        -0.928497         3.118744         0.774108
 H        -0.165064         2.856051         2.357614
 H        -1.506298         2.425908         4.472575
 H        -2.974079         1.216504         4.471009
 H        -2.408131        -0.247209         2.986299
 H         0.539983         0.647835         3.041807
 H         0.086902        -0.836145         2.362267
