19
Iteration:  1015charge 0 multiplicity 1
 O         0.850515         0.762986         0.120572
 C        -0.242612         0.977314         1.110817
 C        -1.689071         0.924335         0.496749
 C        -1.968829         1.654550         1.831156
 C        -0.554232         2.411520         1.560016
 O        -3.022551         2.318879         2.718969
 C        -2.196545         1.629718         3.868109
 C        -1.713041         0.603289         2.835183
 C        -0.251590         0.134198         2.389584
 H         1.226778         1.609882         0.231152
 H        -1.577622         1.579706        -0.407297
 H        -2.344031        -0.003230         0.446294
 H        -0.751967         3.133069         0.648674
 H        -0.245204         2.998852         2.320349
 H        -1.329681         2.380441         4.105518
 H        -2.894204         1.343632         4.740869
 H        -2.372948        -0.332800         2.760908
 H         0.516808         0.164157         3.182569
 H        -0.147920        -0.985589         2.238751
