19
Iteration:  3846
 O         0.790986         0.653030         0.287341
 C        -0.211582         1.070638         1.067347
 C        -1.789391         0.852028         0.471405
 C        -1.930230         1.690002         1.780390
 C        -0.627637         2.420527         1.584949
 O        -3.009300         2.180873         2.725020
 C        -2.312603         1.668504         3.806969
 C        -1.551708         0.666943         2.844134
 C        -0.107877         0.323601         2.345904
 H         0.888998         1.047575        -0.651557
 H        -1.859198         1.408532        -0.526285
 H        -2.129411        -0.119580         0.498285
 H        -0.813604         3.161212         0.783909
 H        -0.167502         2.873034         2.480805
 H        -1.741443         2.400213         4.298395
 H        -2.981623         1.253599         4.593866
 H        -2.193768        -0.193139         2.983152
 H         0.715816         0.551666         3.061732
 H         0.084735        -0.816862         2.272408
