19
Iteration:   299charge 0 multiplicity 1
 O         0.831398         0.695067         0.178609
 C        -0.175557         0.973725         1.065683
 C        -1.692560         0.947844         0.451830
 C        -1.896727         1.743316         1.807603
 C        -0.526785         2.454212         1.649226
 O        -2.850478         2.390179         2.697558
 C        -2.417639         1.561377         3.872205
 C        -1.780425         0.552678         2.820372
 C        -0.302682         0.146563         2.386864
 H         1.650960         1.197226         0.375717
 H        -1.834440         1.643889        -0.412344
 H        -2.081412        -0.052613         0.272712
 H        -0.610176         3.190048         0.832504
 H        -0.063539         2.586314         2.613104
 H        -1.781225         2.139931         4.534032
 H        -3.362528         1.245226         4.409507
 H        -2.570188        -0.198386         2.559649
 H         0.564766         0.477708         2.924625
 H        -0.157498        -0.928647         2.027660
