19
Iteration:  2095
 O         0.825447         0.925636         0.106980
 C        -0.227589         1.002658         1.015712
 C        -1.733882         0.905243         0.490517
 C        -1.991185         1.662294         1.856062
 C        -0.556860         2.386159         1.649333
 O        -3.060184         2.124482         2.693823
 C        -2.288325         1.703640         3.905092
 C        -1.541342         0.679468         2.890386
 C        -0.202325         0.165471         2.331243
 H         1.094425         0.012615        -0.046936
 H        -1.942862         1.353488        -0.551043
 H        -2.371284        -0.038532         0.705587
 H        -0.407035         3.174120         0.886262
 H         0.099115         2.543963         2.463626
 H        -1.699762         2.544771         4.315106
 H        -3.020428         1.237551         4.539026
 H        -2.198475        -0.184798         2.791080
 H         0.661778         0.618344         2.989754
 H        -0.026877        -0.895319         2.233326
