19
Iteration:  2301charge 0 multiplicity 1
 O         0.906100         0.729909         0.181108
 C        -0.253291         1.023628         1.028109
 C        -1.729433         0.938096         0.474856
 C        -2.004725         1.667743         1.835871
 C        -0.634287         2.332540         1.571426
 O        -3.011170         2.180329         2.774084
 C        -2.245665         1.647151         3.887182
 C        -1.651532         0.609084         2.862493
 C        -0.209837         0.313888         2.320053
 H         1.111093         1.590370        -0.311020
 H        -1.831784         1.565134        -0.402663
 H        -2.116639        -0.072602         0.376199
 H        -0.655711         3.152905         0.805966
 H         0.071512         2.498516         2.419130
 H        -1.578030         2.489782         4.113426
 H        -2.813877         1.297799         4.710749
 H        -2.393439        -0.190678         2.878616
 H         0.651150         0.659280         2.965481
 H        -0.082524        -0.728019         2.206207
