19
Iteration:   563charge 0 multiplicity 1
 O         0.809070         0.776070         0.275670
 C        -0.264998         0.953350         1.082829
 C        -1.789466         0.938122         0.425506
 C        -1.873260         1.750756         1.789189
 C        -0.483573         2.378197         1.528322
 O        -2.977428         2.303314         2.691853
 C        -2.254185         1.599243         3.847295
 C        -1.702362         0.612255         2.785948
 C        -0.257776         0.113674         2.475938
 H         1.581429         1.414044         0.326928
 H        -1.752059         1.512524        -0.522834
 H        -2.500154         0.089034         0.331954
 H        -0.632747         3.081651         0.649036
 H         0.066978         2.790416         2.240971
 H        -1.517988         2.287009         4.304803
 H        -2.989167         1.353609         4.595530
 H        -2.391733        -0.236129         2.635775
 H         0.550813         0.481108         3.200376
 H        -0.278180        -0.972958         2.339632
