19
Iteration:  3319charge 0 multiplicity 1
 O         0.795477         0.666333         0.231855
 C        -0.268056         1.079191         1.064272
 C        -1.704746         0.935660         0.565720
 C        -1.925053         1.642161         1.839813
 C        -0.639506         2.466205         1.546363
 O        -2.989219         2.252189         2.631402
 C        -2.270533         1.563703         3.847456
 C        -1.569426         0.592922         2.900682
 C        -0.153700         0.321920         2.367176
 H         0.750766         1.051931        -0.621037
 H        -2.066457         1.362993        -0.341639
 H        -2.144856        -0.072234         0.527748
 H        -0.910968         3.057482         0.644949
 H        -0.001169         2.930724         2.286690
 H        -1.645690         2.221260         4.388028
 H        -3.040958         1.098543         4.416842
 H        -2.173098        -0.308345         2.799813
 H         0.710970         0.747542         2.958020
 H        -0.065688        -0.788641         2.356808
