19
Iteration:  4615
 O         0.774793         0.646791         0.155232
 C        -0.217501         1.045253         1.055963
 C        -1.672325         0.950630         0.504527
 C        -2.005179         1.559884         1.842303
 C        -0.603940         2.469559         1.599099
 O        -3.099979         2.156671         2.684441
 C        -2.261087         1.650913         3.830901
 C        -1.557723         0.670406         2.900765
 C        -0.119494         0.338406         2.415083
 H         0.718583         1.153093        -0.716476
 H        -1.711761         1.674539        -0.339321
 H        -1.880294        -0.111445         0.451160
 H        -0.685356         3.326810         0.944348
 H        -0.195408         2.776519         2.425630
 H        -1.539368         2.477587         4.156835
 H        -2.858274         1.200720         4.528447
 H        -2.229115        -0.228455         2.917114
 H         0.792485         0.627222         2.902576
 H        -0.029546        -0.761440         2.315823
