19
Iteration:  3531
 O         0.845692         0.736757         0.201155
 C        -0.232099         1.008539         1.044738
 C        -1.771007         0.876393         0.525446
 C        -1.971085         1.603726         1.818234
 C        -0.624639         2.425478         1.599927
 O        -3.010329         2.199825         2.644119
 C        -2.250834         1.651593         3.851495
 C        -1.585314         0.704857         2.946176
 C        -0.173615         0.292389         2.388342
 H         0.980358         1.299942        -0.517044
 H        -2.067116         1.350392        -0.488341
 H        -2.151507        -0.061012         0.195958
 H        -0.711675         3.049629         0.703565
 H         0.037278         2.721534         2.407640
 H        -1.571937         2.397098         4.190937
 H        -2.979535         1.225702         4.602469
 H        -2.072025        -0.259356         2.807214
 H         0.742899         0.674241         3.005524
 H        -0.331488        -0.921399         2.282851
