19
Iteration:  4951charge 0 multiplicity 1
 O         0.799478         0.877374         0.221644
 C        -0.266161         1.011247         1.044320
 C        -1.827429         0.834996         0.538642
 C        -1.939166         1.651842         1.781685
 C        -0.558647         2.435310         1.421145
 O        -3.048259         2.138457         2.735009
 C        -2.212756         1.691949         3.795800
 C        -1.565755         0.550846         2.860654
 C        -0.127519         0.318281         2.536938
 H         0.785236         0.021426        -0.269135
 H        -1.874977         1.307441        -0.456524
 H        -2.521781        -0.000740         0.423193
 H        -0.597157         2.965393         0.612484
 H        -0.079748         2.873695         2.232651
 H        -1.436280         2.463855         4.188092
 H        -2.925214         1.275839         4.714244
 H        -2.360373        -0.152948         2.594611
 H         0.449928         0.930733         3.221789
 H         0.446658        -0.649573         2.487114
