19
Iteration:   448charge 0 multiplicity 1
 O         0.897754         0.605768         0.319303
 C        -0.292644         1.064468         0.997274
 C        -1.693844         0.994238         0.493282
 C        -1.891159         1.736344         1.896689
 C        -0.636019         2.462512         1.597368
 O        -2.836949         2.361231         2.613488
 C        -2.360255         1.484227         3.846938
 C        -1.679246         0.618404         2.825139
 C        -0.270541         0.127103         2.374153
 H         0.693451         1.045292        -0.587409
 H        -1.929134         1.680149        -0.348279
 H        -1.977502         0.013644         0.087959
 H        -0.801274         3.271749         0.932864
 H        -0.186159         3.129694         2.447140
 H        -1.766135         2.162795         4.524960
 H        -3.204104         1.129520         4.496488
 H        -2.393487        -0.219385         2.714003
 H         0.587576         0.644778         2.858305
 H        -0.163178        -0.962483         2.385702
