19
Iteration:  3078
 O         0.951997         0.743820         0.228020
 C        -0.212156         0.976302         1.030716
 C        -1.768868         0.850088         0.471448
 C        -2.040624         1.633294         1.814250
 C        -0.639119         2.414347         1.537230
 O        -3.086026         2.114991         2.742277
 C        -2.191955         1.728952         3.870241
 C        -1.544495         0.727178         2.914095
 C        -0.252847         0.264224         2.319060
 H         0.979963         1.574048        -0.340769
 H        -1.980220         1.553555        -0.314021
 H        -2.193996        -0.166361         0.227598
 H        -0.617381         3.106970         0.687264
 H        -0.313600         2.712702         2.505665
 H        -1.330338         2.399363         4.261137
 H        -2.821158         1.493376         4.742384
 H        -2.365059         0.013346         2.916154
 H         0.672375         0.501384         2.837170
 H        -0.147043        -0.851431         2.273231
