19
Iteration:  2499charge 0 multiplicity 1
 O         0.808263         0.704274         0.148127
 C        -0.258290         0.969540         1.063687
 C        -1.791614         0.921991         0.450762
 C        -1.957343         1.657356         1.779437
 C        -0.642172         2.386960         1.606783
 O        -3.017095         2.308088         2.706938
 C        -2.257679         1.591336         3.819180
 C        -1.543763         0.556082         2.872119
 C        -0.140093         0.308021         2.488728
 H         0.788822         1.376422        -0.509658
 H        -1.788795         1.480967        -0.417643
 H        -2.361776        -0.008804         0.340023
 H        -0.455689         3.365611         1.126061
 H        -0.104548         2.669742         2.596709
 H        -1.490445         2.160790         4.300473
 H        -2.991950         1.351756         4.570126
 H        -2.181875        -0.308549         2.752561
 H         0.691462         0.921368         2.966516
 H         0.261349        -0.689550         2.426256
