19
Iteration:  4533charge 0 multiplicity 1
 O         0.890663         0.711558         0.213578
 C        -0.199393         1.092610         1.064854
 C        -1.707954         0.835606         0.476018
 C        -2.034456         1.620378         1.874157
 C        -0.759310         2.402040         1.529934
 O        -3.006762         2.251142         2.712685
 C        -2.186911         1.659500         3.816234
 C        -1.618268         0.594424         2.900275
 C        -0.157928         0.265584         2.371806
 H         1.115706         1.441964        -0.449653
 H        -1.883487         1.345070        -0.429513
 H        -2.148588        -0.114202         0.288698
 H        -0.965738         3.061285         0.696300
 H        -0.235986         2.979225         2.409815
 H        -1.398614         2.290469         4.269371
 H        -2.837077         1.581217         4.800950
 H        -2.337178        -0.193296         2.834806
 H         0.673291         0.544842         3.041009
 H        -0.214678        -0.768175         2.124537
