19
Iteration:  1457charge 0 multiplicity 1
 O         0.827428         0.804976         0.040470
 C        -0.192139         1.031364         1.121727
 C        -1.731642         0.882937         0.554057
 C        -2.000297         1.614515         1.869445
 C        -0.700184         2.364742         1.606598
 O        -2.977244         2.290528         2.648008
 C        -2.331357         1.750145         3.839991
 C        -1.573732         0.616470         2.937849
 C        -0.133654         0.207306         2.335655
 H         1.452104         0.167787         0.343135
 H        -1.779837         1.414997        -0.415925
 H        -2.163165        -0.135239         0.461602
 H        -0.828819         3.079367         0.636627
 H        -0.123155         2.675023         2.604307
 H        -1.524768         2.270887         4.359133
 H        -3.093036         1.370692         4.494315
 H        -2.277364        -0.294696         2.822009
 H         0.662551         0.471460         3.012071
 H        -0.036161        -0.928182         2.278435
