19
Iteration:   541charge 0 multiplicity 1
 O         0.923241         0.753839         0.180417
 C        -0.211610         0.948440         1.036368
 C        -1.664860         0.890210         0.505955
 C        -2.001448         1.704438         1.830904
 C        -0.650684         2.342244         1.607120
 O        -2.894160         2.388080         2.697623
 C        -2.289037         1.669550         3.835126
 C        -1.710944         0.617770         2.910736
 C        -0.326402         0.108072         2.305374
 H         1.566523         1.459065         0.254411
 H        -1.740557         1.368491        -0.480104
 H        -2.129831        -0.125582         0.404391
 H        -0.660914         3.262118         0.935450
 H        -0.298069         2.645024         2.493238
 H        -1.686483         2.385440         4.412198
 H        -3.100003         1.347609         4.477081
 H        -2.454950        -0.195835         2.850530
 H         0.548179         0.404878         2.969197
 H        -0.307599        -0.970484         2.055579
