19
Iteration:  1881
 O         0.859776         0.881177         0.029837
 C        -0.207386         0.984209         1.032144
 C        -1.707228         0.845667         0.506932
 C        -1.969889         1.696463         1.805362
 C        -0.583670         2.408724         1.584257
 O        -3.037258         2.223963         2.755207
 C        -2.333379         1.542730         3.861648
 C        -1.571797         0.739277         2.876649
 C        -0.217804         0.231224         2.498748
 H         0.975987        -0.003237        -0.264201
 H        -1.821811         1.336438        -0.488736
 H        -2.312822        -0.116306         0.479527
 H        -0.701338         3.233024         0.817278
 H         0.060517         2.904027         2.327614
 H        -1.570475         2.117902         4.464108
 H        -3.131397         1.052959         4.550648
 H        -2.287481        -0.159550         2.801459
 H         0.580871         0.674434         3.031482
 H         0.079246        -0.871956         2.530330
