19
Iteration:  1873
 O         0.823651         0.885927         0.057109
 C        -0.208381         1.003226         1.012034
 C        -1.694400         0.882866         0.496199
 C        -1.896531         1.706847         1.864459
 C        -0.550338         2.430451         1.573291
 O        -3.076775         2.207348         2.735880
 C        -2.333975         1.592012         3.842406
 C        -1.627950         0.597730         2.921064
 C        -0.181127         0.257219         2.456918
 H         0.784733        -0.032208        -0.171993
 H        -1.901800         1.445253        -0.426997
 H        -2.126947        -0.180855         0.542492
 H        -0.628545         3.015251         0.695923
 H         0.083537         2.774717         2.351049
 H        -1.775347         2.429381         4.200951
 H        -2.860290         1.148490         4.634055
 H        -2.212737        -0.315598         2.753558
 H         0.685691         0.684075         2.981292
 H        -0.149438        -0.875268         2.555557
