19
Iteration:  1456
 O         0.830940         0.807347         0.036076
 C        -0.200739         1.029706         1.113527
 C        -1.737484         0.876485         0.554064
 C        -2.004203         1.621571         1.868321
 C        -0.700363         2.362241         1.609880
 O        -2.966382         2.287986         2.650114
 C        -2.332075         1.742865         3.831432
 C        -1.573625         0.616734         2.933765
 C        -0.140051         0.214824         2.349907
 H         1.465407         0.162110         0.368997
 H        -1.777049         1.417810        -0.405743
 H        -2.183888        -0.127054         0.484112
 H        -0.800730         3.065090         0.674327
 H        -0.116915         2.689478         2.608041
 H        -1.498832         2.277544         4.364864
 H        -3.120536         1.383057         4.475656
 H        -2.221291        -0.305936         2.817568
 H         0.657569         0.468934         3.027644
 H        -0.039267        -0.899852         2.269308
