19
Iteration:  1623charge 0 multiplicity 1
 O         0.889561         0.783709         0.084936
 C        -0.245464         1.051408         1.039431
 C        -1.725556         0.936826         0.506811
 C        -2.036690         1.633019         1.797233
 C        -0.672076         2.404509         1.606341
 O        -3.042921         2.218316         2.690106
 C        -2.145682         1.655088         3.919901
 C        -1.629405         0.626378         2.895679
 C        -0.208628         0.252968         2.376231
 H         1.096610        -0.150250         0.264293
 H        -1.668301         1.371187        -0.476416
 H        -2.004144        -0.123594         0.563646
 H        -0.936878         3.107039         0.710783
 H        -0.147432         2.864098         2.485588
 H        -1.582933         2.560338         4.223134
 H        -2.772574         1.361313         4.783902
 H        -2.226373        -0.319125         2.944454
 H         0.552755         0.589036         3.040904
 H         0.039770        -0.788938         2.155338
