19
Iteration:  3998
 O         0.774400         0.715161         0.129116
 C        -0.202099         1.049514         1.025346
 C        -1.671757         0.844870         0.590723
 C        -1.933450         1.596852         1.865446
 C        -0.651105         2.399552         1.576130
 O        -2.924840         2.229543         2.626438
 C        -2.353533         1.658927         3.840186
 C        -1.630433         0.624431         2.904157
 C        -0.133098         0.333713         2.447965
 H         0.748925         1.292866        -0.639367
 H        -1.928062         1.400037        -0.376951
 H        -2.015312        -0.117186         0.405253
 H        -0.705409         3.037908         0.753713
 H        -0.209914         2.889157         2.447984
 H        -1.632644         2.467568         4.473402
 H        -3.136106         1.205743         4.428833
 H        -2.412763        -0.155134         2.798659
 H         0.664797         0.798816         3.075171
 H        -0.118248        -0.815150         2.347445
