19
Iteration:  3284charge 0 multiplicity 1
 O         0.885618         0.708478         0.168482
 C        -0.190618         0.954809         0.991324
 C        -1.723094         0.935507         0.488947
 C        -1.952825         1.682338         1.840077
 C        -0.676073         2.381499         1.572403
 O        -3.062330         2.168583         2.683897
 C        -2.193144         1.635707         3.849464
 C        -1.598020         0.684276         2.896924
 C        -0.246315         0.281102         2.460489
 H         0.834901         1.363945        -0.495029
 H        -1.908983         1.606747        -0.327157
 H        -2.439767         0.012129         0.671982
 H        -0.623462         3.129928         0.681454
 H        -0.114651         2.907459         2.376214
 H        -1.574294         2.371647         4.361219
 H        -2.818752         1.202210         4.556692
 H        -2.242568        -0.228049         2.782610
 H         0.587352         0.882810         2.824246
 H         0.027465        -0.735044         2.536253
