19
Iteration:  4018charge 0 multiplicity 1
 O         0.852782         0.773896         0.142247
 C        -0.211835         0.929661         1.069704
 C        -1.761931         0.848301         0.485997
 C        -1.963097         1.690565         1.856037
 C        -0.638827         2.481012         1.474253
 O        -3.002644         2.259993         2.646493
 C        -2.348354         1.645198         3.867861
 C        -1.547036         0.617531         2.941381
 C        -0.123482         0.173111         2.526912
 H         0.640383         1.525495        -0.358257
 H        -1.779384         1.382248        -0.567082
 H        -2.348278        -0.066085         0.369180
 H        -0.946493         3.116391         0.646843
 H         0.116696         3.005778         2.213443
 H        -1.580891         2.385598         4.263258
 H        -3.052372         1.201967         4.501760
 H        -2.245036        -0.247709         3.016086
 H         0.644506         0.693506         3.023499
 H         0.024383        -0.948776         2.409987
