19
Iteration:  2459
 O         0.858144         0.897783         0.171867
 C        -0.217244         0.984590         1.050912
 C        -1.618689         0.906755         0.495089
 C        -1.929675         1.712404         1.900960
 C        -0.612224         2.452289         1.455524
 O        -3.026449         2.233340         2.688969
 C        -2.341493         1.651335         3.894179
 C        -1.606133         0.616518         3.045390
 C        -0.186627         0.070628         2.335034
 H         0.505594         0.332980        -0.606608
 H        -1.778163         1.521114        -0.509737
 H        -2.351438         0.051858         0.367405
 H        -0.752803         3.039387         0.599734
 H         0.046308         2.842210         2.171187
 H        -1.705607         2.503882         4.239184
 H        -3.071056         1.236143         4.701740
 H        -2.353822        -0.261934         2.960763
 H         0.669460         0.101027         2.913997
 H        -0.425010        -0.970587         2.073567
