19
Iteration:   521
 O         0.833557         0.728820         0.173608
 C        -0.172137         1.022402         1.088789
 C        -1.774705         0.935119         0.426929
 C        -1.976510         1.526819         1.841601
 C        -0.563499         2.406803         1.725857
 O        -2.927792         2.409595         2.640970
 C        -2.365909         1.791119         3.826485
 C        -1.674334         0.530290         2.876473
 C        -0.212008         0.062399         2.379612
 H         1.296572         1.532177         0.305142
 H        -2.030080         1.637279        -0.427069
 H        -1.997488        -0.178610         0.181366
 H        -0.723204         3.224648         0.808898
 H         0.162519         2.843737         2.417922
 H        -1.460924         2.369085         4.188779
 H        -3.037616         1.358109         4.568967
 H        -2.379489        -0.300167         2.656321
 H         0.702449         0.148083         3.089176
 H        -0.219867        -0.929217         1.991134
