19
Iteration:  3738charge 0 multiplicity 1
 O         0.868112         0.752790         0.217145
 C        -0.272812         0.950951         1.036789
 C        -1.719440         0.917538         0.476328
 C        -1.955100         1.614871         1.885098
 C        -0.654700         2.374697         1.528294
 O        -3.058168         2.178675         2.663539
 C        -2.181203         1.734011         3.824188
 C        -1.620446         0.638488         2.896375
 C        -0.189094         0.251747         2.434773
 H         0.877337         1.611056        -0.339999
 H        -1.846335         1.475115        -0.538584
 H        -2.104732        -0.088077         0.383166
 H        -0.864868         3.180586         0.744524
 H         0.158230         2.772401         2.229281
 H        -1.446604         2.550753         4.040120
 H        -2.847936         1.314598         4.694686
 H        -2.270080        -0.254383         2.951295
 H         0.580401         0.723146         3.077286
 H        -0.144939        -0.765915         2.489317
