19
Iteration:  1166
 O         0.843464         0.744301         0.312315
 C        -0.284442         1.034753         1.061280
 C        -1.718356         0.858818         0.402347
 C        -1.975332         1.679147         1.816878
 C        -0.699132         2.446340         1.538695
 O        -3.014811         2.280583         2.732819
 C        -2.128758         1.680758         3.834425
 C        -1.627630         0.516677         2.896822
 C        -0.190005         0.198559         2.407611
 H         0.727578         1.206007        -0.499346
 H        -1.726463         1.358908        -0.588230
 H        -2.140107        -0.147610         0.290166
 H        -0.865906         3.046166         0.544698
 H         0.011799         2.869650         2.276351
 H        -1.338746         2.306464         4.032814
 H        -2.611478         1.552720         4.854501
 H        -2.418062        -0.247676         2.671613
 H         0.580145         0.735756         2.967650
 H        -0.057535        -0.842583         2.045549
