19
Iteration:  3518charge 0 multiplicity 1
 O         0.847117         0.690971         0.230486
 C        -0.254584         1.034920         1.019180
 C        -1.796029         0.902227         0.566053
 C        -1.934326         1.683980         1.875864
 C        -0.615007         2.420030         1.531100
 O        -3.045230         2.169498         2.585595
 C        -2.251668         1.669942         3.841711
 C        -1.542419         0.603812         2.888087
 C        -0.147130         0.261598         2.395572
 H         0.789747         1.382818        -0.530774
 H        -1.855624         1.646381        -0.335676
 H        -2.333282        -0.030876         0.690603
 H        -0.780976         3.288177         0.916475
 H        -0.068449         2.812956         2.449855
 H        -1.746378         2.541413         4.356840
 H        -2.958503         1.239305         4.688747
 H        -2.313426        -0.159081         2.890768
 H         0.749954         0.614330         3.027847
 H         0.120046        -0.811760         2.176196
