19
Iteration:  3685
 O         0.912860         0.744364         0.215620
 C        -0.231185         1.051019         1.021113
 C        -1.742630         0.824020         0.550262
 C        -1.918438         1.618255         1.894050
 C        -0.674719         2.403412         1.438541
 O        -2.947825         2.238804         2.701342
 C        -2.325501         1.656443         3.833084
 C        -1.643132         0.639386         2.966766
 C        -0.202408         0.281805         2.350773
 H         0.839029         1.157328        -0.723913
 H        -1.769348         1.604272        -0.224450
 H        -2.340347        -0.076470         0.487706
 H        -0.599764         3.016884         0.509682
 H        -0.200425         2.888528         2.236283
 H        -1.698769         2.304495         4.501785
 H        -3.169302         1.165225         4.469218
 H        -2.302931        -0.225092         2.900865
 H         0.591276         0.683440         2.964030
 H         0.009664        -0.725135         2.358804
