19
Iteration:  3634charge 0 multiplicity 1
 O         0.797413         0.671148         0.163118
 C        -0.264779         1.052219         1.079072
 C        -1.732402         0.869232         0.482508
 C        -1.950340         1.662464         1.854929
 C        -0.573323         2.468383         1.563185
 O        -2.970990         2.160179         2.613103
 C        -2.317674         1.670192         3.911999
 C        -1.612376         0.632622         2.847106
 C        -0.128007         0.276642         2.475556
 H         0.689616         1.359782        -0.582524
 H        -1.845040         1.436816        -0.375965
 H        -2.168883        -0.186741         0.489372
 H        -0.911725         3.198477         0.837753
 H        -0.229262         2.991207         2.471209
 H        -1.630484         2.437779         4.195254
 H        -2.940354         1.551500         4.696426
 H        -2.201109        -0.276115         2.744842
 H         0.695645         0.687501         3.071602
 H         0.204920        -0.872265         2.262297
