19
Iteration:  2861
 O         0.846876         0.657641         0.134252
 C        -0.148034         1.038480         1.064002
 C        -1.619295         0.908122         0.423125
 C        -2.023441         1.629021         1.886614
 C        -0.717387         2.422466         1.491217
 O        -3.065241         2.247412         2.770904
 C        -2.230273         1.683799         3.873357
 C        -1.593454         0.570648         2.937618
 C        -0.196224         0.288199         2.449376
 H         0.785668         1.222626        -0.606320
 H        -1.834887         1.578555        -0.426701
 H        -2.028647        -0.016442         0.076772
 H        -0.962138         3.118922         0.638553
 H        -0.251461         3.164589         2.190653
 H        -1.439934         2.395965         4.035477
 H        -2.939103         1.309142         4.640739
 H        -2.157662        -0.403730         2.829323
 H         0.618939         0.728257         2.984920
 H        -0.021767        -0.855629         2.461277
