19
Iteration:  2092charge 0 multiplicity 1
 O         0.811922         0.907746         0.125089
 C        -0.256635         0.993851         1.019577
 C        -1.721650         0.924434         0.462553
 C        -2.009036         1.638171         1.844492
 C        -0.538000         2.373732         1.643302
 O        -3.041926         2.121264         2.684376
 C        -2.297299         1.686302         3.937734
 C        -1.541267         0.689267         2.881301
 C        -0.187954         0.211822         2.321803
 H         1.124226         0.018850        -0.002864
 H        -2.011333         1.341746        -0.556825
 H        -2.339058         0.003837         0.650077
 H        -0.361210         3.177539         0.952258
 H         0.070554         2.597611         2.533254
 H        -1.707711         2.628896         4.339264
 H        -3.005040         1.237047         4.628987
 H        -2.209607        -0.184721         2.854524
 H         0.641308         0.572322         2.917382
 H         0.034448        -0.842569         2.200936
