19
Iteration:  3507charge 0 multiplicity 1
 O         0.837745         0.689969         0.217155
 C        -0.270710         0.967518         1.028973
 C        -1.803880         0.943382         0.611549
 C        -1.923909         1.683476         1.866680
 C        -0.568967         2.560435         1.560079
 O        -3.034071         2.145656         2.659955
 C        -2.321564         1.718706         3.800230
 C        -1.567256         0.564953         2.861394
 C        -0.084150         0.185751         2.403382
 H         0.859186         1.196145        -0.616801
 H        -1.974854         1.449283        -0.415209
 H        -2.245650         0.008976         0.402847
 H        -0.856385         3.103075         0.700340
 H        -0.104519         3.141592         2.405712
 H        -1.670136         2.526096         4.215218
 H        -3.115816         1.312944         4.547842
 H        -2.175191        -0.313548         2.691656
 H         0.727472         0.828559         2.853418
 H         0.121981        -0.903650         2.401723
