19
Iteration:  1207charge 0 multiplicity 1
 O         0.809910         0.801005         0.095907
 C        -0.255718         0.996363         0.966334
 C        -1.765170         0.870434         0.539514
 C        -1.918860         1.662422         1.899445
 C        -0.596558         2.335638         1.502936
 O        -2.984031         2.249579         2.645992
 C        -2.359696         1.690747         3.869317
 C        -1.588253         0.658294         3.012307
 C        -0.136411         0.181751         2.395180
 H         1.655347         1.331066         0.244646
 H        -1.911301         1.371992        -0.413641
 H        -2.292709        -0.074732         0.581725
 H        -0.765960         2.964106         0.672290
 H        -0.061054         2.742812         2.377534
 H        -1.694185         2.496923         4.414899
 H        -3.232056         1.441326         4.551407
 H        -2.117959        -0.291405         3.017650
 H         0.765050         0.603261         2.876107
 H        -0.175512        -0.924325         2.381858
