19
Iteration:  2310
 O         0.836905         0.771227         0.220587
 C        -0.247031         1.016035         1.033322
 C        -1.785643         0.946974         0.422842
 C        -1.991214         1.643251         1.850266
 C        -0.603400         2.444090         1.560959
 O        -2.987983         2.190716         2.718668
 C        -2.270174         1.661191         3.861999
 C        -1.594772         0.542283         2.876424
 C        -0.162790         0.190157         2.419155
 H         0.835518         1.462127        -0.518742
 H        -1.764048         1.636703        -0.422578
 H        -2.376905         0.109227         0.227445
 H        -0.700942         3.212400         0.712522
 H         0.127453         2.900695         2.384444
 H        -1.467542         2.328805         4.164214
 H        -2.916717         1.486911         4.689708
 H        -2.186772        -0.369659         2.889067
 H         0.623835         0.644412         3.037882
 H         0.039430        -0.919472         2.315183
