19
Iteration:   666charge 0 multiplicity 1
 O         0.797045         0.808253         0.204955
 C        -0.236515         0.948872         1.080942
 C        -1.743543         0.956255         0.420489
 C        -1.921112         1.620436         1.770989
 C        -0.513992         2.291938         1.580963
 O        -2.971154         2.345085         2.738846
 C        -2.289110         1.667967         3.803292
 C        -1.741734         0.620553         2.847031
 C        -0.227027         0.175692         2.397119
 H         1.664006         1.106705         0.626731
 H        -1.835229         1.633585        -0.486224
 H        -2.212220        -0.075118         0.359084
 H        -0.688413         3.087317         0.868959
 H         0.162022         2.539573         2.438492
 H        -1.436883         2.306680         4.221221
 H        -3.016761         1.318119         4.596744
 H        -2.404824        -0.282089         2.722652
 H         0.506611         0.676269         3.082674
 H         0.055162        -0.923396         2.455917
