19
Iteration:  1120
 O         0.840854         0.854562         0.171740
 C        -0.229595         0.943724         1.069563
 C        -1.826778         0.858612         0.565058
 C        -1.943621         1.717142         1.839873
 C        -0.527755         2.435787         1.562408
 O        -3.024425         2.265418         2.666912
 C        -2.327330         1.662931         3.845365
 C        -1.598211         0.643069         2.858760
 C        -0.106117         0.137347         2.385814
 H         0.877955         0.194015        -0.534796
 H        -1.991228         1.380935        -0.362088
 H        -2.355989        -0.080640         0.498624
 H        -0.557628         3.177069         0.806405
 H         0.072837         2.686562         2.496703
 H        -1.672498         2.311157         4.317898
 H        -3.065277         1.349901         4.576499
 H        -2.245410        -0.213126         2.884081
 H         0.722528         0.631714         2.825237
 H        -0.195618        -0.913400         2.353548
