19
Iteration:  3942charge 0 multiplicity 1
 O         0.883419         0.742289         0.279560
 C        -0.231209         1.045043         1.009612
 C        -1.771620         0.894343         0.466838
 C        -1.973720         1.620029         1.850876
 C        -0.597558         2.474598         1.388440
 O        -3.071303         2.211312         2.679016
 C        -2.204038         1.650133         3.874066
 C        -1.588966         0.578801         2.964029
 C        -0.223967         0.241006         2.456955
 H         0.839864         1.230423        -0.628846
 H        -1.651838         1.569771        -0.446148
 H        -2.239067        -0.073953         0.369248
 H        -0.751930         3.102724         0.562767
 H        -0.037905         2.983292         2.212584
 H        -1.497788         2.571043         4.280039
 H        -2.789200         1.195481         4.640444
 H        -2.372604        -0.228403         2.981379
 H         0.629152         0.487582         3.123112
 H        -0.093142        -0.928038         2.246490
