19
Iteration:  2580charge 0 multiplicity 1
 O         0.813018         0.958425         0.088743
 C        -0.274596         0.960890         1.048575
 C        -1.717449         0.871152         0.441997
 C        -1.989988         1.516276         1.821750
 C        -0.648351         2.375501         1.538217
 O        -2.914435         2.227427         2.649778
 C        -2.246992         1.730463         3.845567
 C        -1.617242         0.600914         3.008550
 C        -0.182281         0.213929         2.579799
 H         0.780067         0.167854        -0.470949
 H        -1.937125         1.769573        -0.287466
 H        -2.260195        -0.025124         0.069557
 H        -0.786670         3.029506         0.697739
 H        -0.013850         2.588856         2.326288
 H        -1.446571         2.474856         4.063018
 H        -2.922915         1.556087         4.726352
 H        -2.374372        -0.266537         3.021098
 H         0.676127         0.593605         3.023752
 H        -0.028836        -0.867135         2.403999
