19
Iteration:  2719charge 0 multiplicity 1
 O         0.842525         0.787681         0.027177
 C        -0.216477         1.004471         0.988790
 C        -1.757903         0.893632         0.595091
 C        -1.954005         1.547905         1.960491
 C        -0.601136         2.404417         1.474336
 O        -3.067505         2.150903         2.613259
 C        -2.241715         1.805287         3.889916
 C        -1.572484         0.598457         3.026431
 C        -0.202885         0.264893         2.380265
 H         1.644380         0.907252         0.532819
 H        -2.130818         1.571639        -0.147638
 H        -2.060914        -0.088916         0.314063
 H        -1.022464         3.052403         0.680162
 H        -0.083378         2.999944         2.275985
 H        -1.637998         2.743122         4.116256
 H        -3.049548         1.423044         4.636614
 H        -2.180586        -0.328946         3.087632
 H         0.710970         0.616477         2.918173
 H        -0.095201        -0.927761         2.348459
