19
Iteration:  4266
 O         0.829388         0.757884         0.211146
 C        -0.260913         0.964706         1.105517
 C        -1.875805         0.938603         0.533669
 C        -1.895747         1.654863         1.785451
 C        -0.618612         2.406565         1.522800
 O        -2.999159         2.187702         2.682004
 C        -2.292324         1.689822         3.749767
 C        -1.562605         0.580157         2.900041
 C        -0.098566         0.278971         2.475415
 H         0.766195         1.436792        -0.437004
 H        -1.677173         1.480284        -0.426737
 H        -2.513574         0.033699         0.471181
 H        -0.706091         3.030281         0.557797
 H        -0.033251         2.738889         2.305455
 H        -1.539634         2.508673         4.056108
 H        -3.023891         1.210795         4.645878
 H        -2.227258        -0.326357         2.874798
 H         0.751491         0.675172         3.104186
 H         0.111994        -0.867065         2.490996
