19
Iteration:   498charge 0 multiplicity 1
 O         0.808697         0.720600         0.183895
 C        -0.260766         0.935033         1.029076
 C        -1.698192         1.026925         0.511957
 C        -1.860905         1.738905         1.831149
 C        -0.557045         2.327726         1.695148
 O        -3.010540         2.208821         2.540274
 C        -2.237369         1.666962         3.860519
 C        -1.656648         0.637680         2.865571
 C        -0.319099         0.172858         2.443828
 H         1.189799         1.632770         0.113693
 H        -1.484397         1.637017        -0.399649
 H        -2.568854         0.322638         0.403731
 H        -0.481590         3.132999         0.823106
 H         0.119627         2.561132         2.445447
 H        -1.476513         2.385224         4.210908
 H        -2.938449         1.258490         4.574093
 H        -2.383804        -0.190793         2.776148
 H         0.591988         0.443220         3.058084
 H        -0.323268        -0.914398         2.358148
