19
Iteration:  1194charge 0 multiplicity 1
 O         0.882416         0.778853         0.101147
 C        -0.242719         0.914019         1.042612
 C        -1.870790         0.806118         0.531735
 C        -1.931866         1.686450         1.819932
 C        -0.597079         2.469305         1.540959
 O        -3.005765         2.225658         2.649441
 C        -2.259917         1.682707         3.897760
 C        -1.562793         0.671141         2.882512
 C        -0.204987         0.181462         2.458971
 H         1.261774         1.635167         0.292910
 H        -2.044606         1.334370        -0.405785
 H        -2.341610        -0.190483         0.512839
 H        -0.662797         3.193567         0.817820
 H         0.078307         2.780148         2.359562
 H        -1.623159         2.594513         4.382508
 H        -2.831848         1.174263         4.642960
 H        -2.366451        -0.007000         2.736755
 H         0.626840         0.575382         3.076354
 H        -0.143074        -0.882887         2.276363
