19
Iteration:  1976charge 0 multiplicity 1
 O         0.799721         0.955214         0.119563
 C        -0.262166         1.023184         1.113474
 C        -1.696901         0.897867         0.493423
 C        -1.944893         1.614705         1.834343
 C        -0.590110         2.393021         1.658087
 O        -3.034607         2.121568         2.635329
 C        -2.183873         1.695860         3.842663
 C        -1.608801         0.625362         2.945852
 C        -0.243295         0.176943         2.358721
 H         0.783202         0.018877        -0.181280
 H        -1.846844         1.445808        -0.439521
 H        -2.027017        -0.116251         0.399232
 H        -0.677039         3.126706         0.804000
 H        -0.067854         2.962125         2.445640
 H        -1.392257         2.397241         4.046949
 H        -2.925348         1.531263         4.636537
 H        -2.340068        -0.158124         2.763632
 H         0.614658         0.545321         3.013539
 H        -0.067166        -0.880675         2.276288
