19
Iteration:   805charge 0 multiplicity 1
 O         0.912574         0.704382         0.171047
 C        -0.207675         0.924228         1.026529
 C        -1.865292         1.017448         0.431559
 C        -1.907439         1.772475         1.780132
 C        -0.546412         2.352894         1.594699
 O        -3.049740         2.240055         2.723187
 C        -2.249428         1.592421         3.867208
 C        -1.598117         0.674813         2.864098
 C        -0.290045         0.163118         2.413536
 H         1.612494         1.227729         0.511963
 H        -1.905033         1.800456        -0.322824
 H        -2.453638         0.122922         0.253994
 H        -0.469008         3.199686         0.660165
 H        -0.061313         2.702898         2.491269
 H        -1.675254         2.376289         4.285393
 H        -2.956481         1.194720         4.588798
 H        -2.404566        -0.066524         2.838508
 H         0.521636         0.462103         3.103978
 H        -0.104576        -0.886764         2.345034
