19
Iteration:  3571charge 0 multiplicity 1
 O         0.894246         0.824057         0.251269
 C        -0.262952         1.010924         1.064815
 C        -1.803390         0.810213         0.568830
 C        -1.992753         1.619924         1.826419
 C        -0.639122         2.395322         1.529050
 O        -2.947577         2.271556         2.646862
 C        -2.190103         1.641868         3.819904
 C        -1.622803         0.591582         2.855252
 C        -0.213903         0.229366         2.425671
 H         0.798701         1.531085        -0.484590
 H        -1.977925         1.446315        -0.389795
 H        -2.165343        -0.250710         0.509352
 H        -0.827176         3.041781         0.663723
 H        -0.163583         3.126085         2.294853
 H        -1.292382         2.325926         4.039439
 H        -2.979330         1.328714         4.623827
 H        -2.360936        -0.243568         2.862864
 H         0.689013         0.567799         2.935390
 H        -0.225171        -0.777851         2.302610
