19
Iteration:  1292
 O         0.895170         0.660974         0.173601
 C        -0.249494         1.028479         0.976055
 C        -1.813363         0.857853         0.502571
 C        -1.968929         1.649734         1.902716
 C        -0.739866         2.488044         1.507826
 O        -2.903484         2.223200         2.720194
 C        -2.292668         1.671897         3.839172
 C        -1.542657         0.633519         2.881449
 C        -0.218623         0.260401         2.390014
 H         1.615367         1.084176         0.656157
 H        -1.916154         1.684684        -0.192497
 H        -2.277834        -0.061870         0.134098
 H        -0.801310         3.114281         0.706636
 H        -0.217989         3.069980         2.292813
 H        -1.707184         2.410930         4.319424
 H        -2.973901         1.248505         4.450661
 H        -2.197385        -0.204402         2.904338
 H         0.695077         0.434560         2.932032
 H        -0.238955        -0.793336         2.296932
