19
Iteration:  2500
 O         0.802724         0.701228         0.148537
 C        -0.257616         0.965643         1.063270
 C        -1.782806         0.926992         0.452489
 C        -1.965164         1.657481         1.784917
 C        -0.639220         2.388080         1.596715
 O        -3.021110         2.309104         2.713877
 C        -2.257991         1.595089         3.821836
 C        -1.544797         0.555226         2.869424
 C        -0.133291         0.309735         2.493422
 H         0.823781         1.410539        -0.493954
 H        -1.748161         1.520278        -0.431427
 H        -2.325724        -0.017617         0.275220
 H        -0.470868         3.327673         1.068677
 H        -0.121202         2.667104         2.571117
 H        -1.476631         2.142105         4.288528
 H        -3.006287         1.324613         4.590009
 H        -2.192946        -0.325641         2.766828
 H         0.668854         0.912461         2.948552
 H         0.247434        -0.692485         2.434819
