19
Iteration:  3111
 O         0.806942         0.800082         0.241039
 C        -0.287949         1.016449         1.113091
 C        -1.722595         0.864794         0.557254
 C        -1.938689         1.599081         1.865459
 C        -0.678012         2.439188         1.531135
 O        -2.978436         2.290593         2.594025
 C        -2.215309         1.604173         3.819520
 C        -1.600959         0.549574         2.965672
 C        -0.120463         0.239130         2.341432
 H         0.528003         1.297346        -0.581755
 H        -1.865374         1.449682        -0.300091
 H        -2.121174        -0.145558         0.385019
 H        -0.751356         3.094831         0.634710
 H        -0.239556         2.976705         2.341089
 H        -1.398684         2.325727         4.192528
 H        -3.059752         1.532136         4.521086
 H        -2.152124        -0.345145         2.699748
 H         0.655689         0.706531         2.956491
 H        -0.143240        -0.875457         2.275174
