19
Iteration:  3234charge 0 multiplicity 1
 O         0.870611         0.846893         0.238596
 C        -0.253274         1.016015         1.027529
 C        -1.793168         0.794808         0.533409
 C        -1.940801         1.618765         1.856836
 C        -0.726027         2.409686         1.526411
 O        -2.976612         2.273788         2.627597
 C        -2.183718         1.705682         3.841950
 C        -1.598114         0.628282         2.893657
 C        -0.179958         0.126351         2.432591
 H         0.778753         1.521680        -0.499808
 H        -1.759226         1.507060        -0.324160
 H        -2.083787        -0.185115         0.391755
 H        -0.827497         3.160882         0.801818
 H        -0.031727         2.816244         2.243410
 H        -1.541559         2.412288         4.424051
 H        -3.004587         1.249995         4.560372
 H        -2.232427        -0.211937         2.708725
 H         0.712298         0.433759         3.042609
 H        -0.273727        -1.011836         2.248450
