19
Iteration:  1417charge 0 multiplicity 1
 O         0.774586         0.784000         0.128012
 C        -0.240353         0.940025         1.082823
 C        -1.726093         0.916311         0.559132
 C        -1.971868         1.754931         1.814930
 C        -0.596813         2.423565         1.449066
 O        -2.953608         2.245108         2.738472
 C        -2.296511         1.562195         3.863880
 C        -1.624474         0.569272         2.819168
 C        -0.178254         0.310417         2.469810
 H         1.570309         0.463162         0.635627
 H        -1.683413         1.447619        -0.410260
 H        -2.307077         0.000278         0.346164
 H        -0.716245         2.713978         0.385940
 H         0.003898         2.961805         2.112210
 H        -1.614970         2.298473         4.349197
 H        -3.120590         1.390205         4.627968
 H        -2.363807        -0.266481         2.770264
 H         0.598250         0.812092         3.113758
 H         0.044352        -0.785183         2.300112
