19
Iteration:  4870charge 0 multiplicity 1
 O         0.797305         0.874757         0.112156
 C        -0.196626         0.945796         1.065467
 C        -1.831996         0.838135         0.583482
 C        -1.994155         1.726613         1.801044
 C        -0.634352         2.435131         1.618101
 O        -3.095361         2.128856         2.649617
 C        -2.177671         1.693848         3.781007
 C        -1.585416         0.642179         2.858897
 C        -0.086062         0.223388         2.476333
 H         1.317354         0.030110        -0.090781
 H        -1.746482         1.413114        -0.347933
 H        -2.352425        -0.104287         0.673009
 H        -0.536337         3.151020         0.718012
 H        -0.004214         2.850466         2.403749
 H        -1.467671         2.575177         3.996008
 H        -2.782829         1.375735         4.648164
 H        -2.360086        -0.158506         2.607428
 H         0.627615         0.802259         3.130299
 H         0.078943        -0.832569         2.659439
