19
Iteration:  4516
 O         0.812511         0.719162         0.263404
 C        -0.277762         0.986700         1.020328
 C        -1.777999         0.958321         0.489843
 C        -1.968398         1.553829         1.813114
 C        -0.668928         2.471334         1.621017
 O        -2.986443         2.151645         2.601408
 C        -2.172768         1.717576         3.810882
 C        -1.568765         0.566202         2.921074
 C        -0.176955         0.281728         2.418223
 H         0.836373         1.349830        -0.534210
 H        -1.827642         1.715063        -0.358415
 H        -2.185123        -0.128753         0.325075
 H        -0.910974         3.308045         0.913451
 H        -0.071369         2.819698         2.400967
 H        -1.569042         2.615275         4.218031
 H        -2.731540         1.470133         4.667594
 H        -2.244571        -0.340009         3.014320
 H         0.620197         0.829665         2.929635
 H         0.142008        -0.792993         2.256021
