19
Iteration:  4150
 O         0.837885         0.659866         0.159948
 C        -0.252823         0.968130         1.023040
 C        -1.677536         0.838776         0.545590
 C        -1.974726         1.616026         1.859126
 C        -0.724606         2.483687         1.480935
 O        -2.941719         2.249410         2.700805
 C        -2.348497         1.622077         3.847117
 C        -1.578332         0.681495         2.914761
 C        -0.161149         0.354072         2.449237
 H         0.957095         1.348112        -0.441044
 H        -1.653880         1.690847        -0.231249
 H        -2.028487        -0.124772         0.228577
 H        -0.815423         3.072642         0.575240
 H        -0.053289         2.919605         2.419791
 H        -1.686422         2.262237         4.449653
 H        -3.028940         1.158012         4.504869
 H        -2.145426        -0.273453         2.826909
 H         0.769586         0.589419         2.884257
 H        -0.104989        -0.747805         2.378111
