19
Iteration:  1271
 O         0.746898         0.710377         0.164285
 C        -0.180363         1.008598         1.034866
 C        -1.755961         0.926320         0.476783
 C        -1.962564         1.756371         1.835154
 C        -0.532527         2.415279         1.423228
 O        -3.109118         2.173004         2.704985
 C        -2.220902         1.605342         3.912021
 C        -1.602421         0.626621         2.913011
 C        -0.160628         0.264080         2.419559
 H         1.567505         0.786206         0.666658
 H        -1.739928         1.494378        -0.469925
 H        -2.413174         0.054623         0.364870
 H        -0.785029         3.049303         0.651268
 H         0.083631         2.951924         2.174017
 H        -1.487947         2.380143         4.275975
 H        -2.922678         1.277054         4.644895
 H        -2.316250        -0.179749         2.869782
 H         0.548094         0.793840         3.065032
 H         0.174803        -0.758774         2.470708
