19
Iteration:  4979charge 0 multiplicity 1
 O         0.809233         0.775829         0.083064
 C        -0.237946         1.038044         0.985793
 C        -1.723747         0.879765         0.532943
 C        -1.969876         1.546947         1.844148
 C        -0.652189         2.438908         1.576652
 O        -3.035043         2.171066         2.612599
 C        -2.296169         1.671196         3.906667
 C        -1.505631         0.690611         2.972976
 C        -0.112824         0.350781         2.448568
 H         1.023711        -0.142340         0.114274
 H        -1.869796         1.465876        -0.380439
 H        -2.246779        -0.088296         0.316808
 H        -0.997591         3.206038         0.685331
 H        -0.238934         2.845432         2.553085
 H        -1.761948         2.463375         4.414322
 H        -2.956213         1.252819         4.588687
 H        -2.185263        -0.202222         2.942970
 H         0.848824         0.605644         2.934073
 H        -0.083030        -0.728122         2.283657
