19
Iteration:  1430charge 0 multiplicity 1
 O         0.751655         0.845037         0.143892
 C        -0.265647         0.984208         1.062764
 C        -1.800046         0.862769         0.477957
 C        -1.897299         1.666087         1.854867
 C        -0.564065         2.392921         1.462340
 O        -2.956101         2.282252         2.645024
 C        -2.259135         1.593671         3.886742
 C        -1.647856         0.634968         2.875673
 C        -0.193627         0.222566         2.474487
 H         1.528015         0.436775         0.507123
 H        -1.962290         1.414081        -0.445620
 H        -2.191110        -0.148119         0.576167
 H        -0.627782         3.136754         0.770329
 H         0.064192         2.742231         2.253073
 H        -1.438522         2.173353         4.459215
 H        -3.019503         1.045526         4.541434
 H        -2.281092        -0.167745         2.552057
 H         0.399686         0.971611         3.089119
 H         0.262945        -0.702703         2.730103
