19
Iteration:   672charge 0 multiplicity 1
 O         0.833244         0.766787         0.181081
 C        -0.234325         0.957833         1.082213
 C        -1.708288         0.956421         0.402285
 C        -1.951922         1.635680         1.831181
 C        -0.623065         2.295553         1.614489
 O        -3.004926         2.390718         2.736693
 C        -2.260909         1.662825         3.809905
 C        -1.696618         0.623824         2.815469
 C        -0.222889         0.164192         2.399245
 H         1.653956         0.998539         0.555837
 H        -1.620651         1.486537        -0.530586
 H        -2.134989        -0.026860         0.255461
 H        -0.686523         3.161660         0.870812
 H         0.014304         2.511225         2.517314
 H        -1.529667         2.315104         4.224296
 H        -2.875969         1.275514         4.591848
 H        -2.317044        -0.263688         2.785931
 H         0.550282         0.561471         3.097364
 H        -0.001062        -0.872147         2.288101
