19
Iteration:  1942
 O         0.915149         0.873603         0.147666
 C        -0.199251         1.026465         1.045712
 C        -1.824662         0.922465         0.443694
 C        -1.985419         1.645922         1.806934
 C        -0.634949         2.412810         1.583524
 O        -3.033061         2.189085         2.727039
 C        -2.253331         1.583143         3.850536
 C        -1.573791         0.666370         2.917446
 C        -0.193852         0.212547         2.393077
 H         1.055958        -0.066888         0.135489
 H        -2.027304         1.591711        -0.415263
 H        -2.351949        -0.019104         0.464824
 H        -0.725545         2.949936         0.629038
 H        -0.151050         2.877600         2.452375
 H        -1.554823         2.295766         4.286712
 H        -2.848821         1.266591         4.690918
 H        -2.179071        -0.210680         2.785032
 H         0.657336         0.736605         3.002769
 H        -0.065999        -0.835303         2.281732
