19
Iteration:  2751charge 0 multiplicity 1
 O         0.804965         0.758476         0.202687
 C        -0.268525         0.938171         1.076214
 C        -1.838189         0.849782         0.487309
 C        -1.992091         1.681715         1.798636
 C        -0.676623         2.418105         1.527830
 O        -3.039595         2.165526         2.727007
 C        -2.167664         1.747662         3.794073
 C        -1.506023         0.650447         2.826569
 C        -0.143367         0.245296         2.435934
 H         1.522079         1.478880         0.279194
 H        -2.003346         1.331128        -0.450680
 H        -2.186681        -0.154274         0.416301
 H        -0.772809         3.117134         0.671917
 H        -0.324337         2.920220         2.465661
 H        -1.472297         2.546240         4.268890
 H        -2.706139         1.281973         4.728378
 H        -2.150058        -0.216892         2.968540
 H         0.815250         0.639914         2.850520
 H         0.072619        -0.888988         2.366434
