19
Iteration:  3635
 O         0.793967         0.673431         0.162849
 C        -0.263700         1.040427         1.086287
 C        -1.733582         0.866756         0.485533
 C        -1.948775         1.669234         1.852245
 C        -0.575559         2.461439         1.558439
 O        -2.969378         2.162385         2.609201
 C        -2.316589         1.665150         3.906456
 C        -1.608591         0.632322         2.847496
 C        -0.129286         0.281191         2.470804
 H         0.661208         1.350931        -0.541272
 H        -1.865221         1.477525        -0.351057
 H        -2.140857        -0.195219         0.533926
 H        -0.889687         3.229013         0.856702
 H        -0.231038         3.009125         2.511639
 H        -1.618034         2.460332         4.176075
 H        -2.964307         1.528583         4.729715
 H        -2.192379        -0.289292         2.712189
 H         0.692570         0.674552         3.075046
 H         0.206592        -0.807302         2.258074
