19
Iteration:  2325
 O         0.791695         0.827512         0.206394
 C        -0.264201         0.988568         1.122933
 C        -1.834425         1.047937         0.545081
 C        -1.861005         1.622358         1.835142
 C        -0.659403         2.460414         1.561927
 O        -2.948745         2.232282         2.574994
 C        -2.190120         1.586624         3.777328
 C        -1.576191         0.547368         2.917923
 C        -0.138635         0.126387         2.488100
 H         0.418296         0.994244        -0.680967
 H        -1.948440         1.791068        -0.238889
 H        -2.194818        -0.030067         0.349692
 H        -0.971822         3.042731         0.708347
 H        -0.321014         3.009794         2.388743
 H        -1.603988         2.392891         4.271166
 H        -2.938269         1.055540         4.394475
 H        -2.425847        -0.130664         2.700993
 H         0.765517         0.473054         3.079939
 H        -0.033052        -0.893152         2.348658
