19
Iteration:  4515
 O         0.810898         0.721641         0.262612
 C        -0.278133         0.981987         1.019837
 C        -1.778534         0.962235         0.491151
 C        -1.973756         1.552837         1.814495
 C        -0.661372         2.476693         1.621298
 O        -2.987836         2.149191         2.602034
 C        -2.175813         1.715854         3.801962
 C        -1.560210         0.568213         2.915516
 C        -0.173869         0.278122         2.422971
 H         0.823684         1.332593        -0.523083
 H        -1.863147         1.704880        -0.344182
 H        -2.189651        -0.135802         0.303170
 H        -0.889806         3.279981         0.940189
 H        -0.056263         2.820959         2.395842
 H        -1.593151         2.622000         4.247642
 H        -2.731862         1.492047         4.690596
 H        -2.244300        -0.322870         3.021454
 H         0.603504         0.843036         2.916143
 H         0.129197        -0.794247         2.273703
