19
Iteration:  3203
 O         0.904920         0.716270         0.191371
 C        -0.192430         0.985287         1.060233
 C        -1.794218         0.922103         0.516989
 C        -2.000601         1.645834         1.856382
 C        -0.692342         2.396237         1.584449
 O        -3.054589         2.192399         2.723413
 C        -2.188947         1.714528         3.829651
 C        -1.604275         0.597704         2.817543
 C        -0.176770         0.295939         2.421823
 H         0.920321         1.357150        -0.528683
 H        -1.799604         1.356947        -0.550158
 H        -2.079206        -0.120615         0.315212
 H        -0.766463         3.030270         0.736758
 H         0.072949         2.860231         2.226909
 H        -1.439214         2.358869         4.287008
 H        -2.946522         1.282892         4.550116
 H        -2.305415        -0.216916         2.732565
 H         0.534322         0.836726         2.912894
 H        -0.065085        -0.762055         2.444927
