19
Iteration:  4363charge 0 multiplicity 1
 O         0.854544         0.805828         0.128566
 C        -0.205551         1.024372         1.043296
 C        -1.740306         0.851638         0.531069
 C        -2.001457         1.551876         1.848478
 C        -0.572316         2.321552         1.642108
 O        -3.032609         2.224010         2.612991
 C        -2.279497         1.797733         3.858220
 C        -1.602276         0.638467         2.980545
 C        -0.148445         0.225527         2.384895
 H         0.672352         1.225934        -0.687742
 H        -1.987252         1.461834        -0.376276
 H        -2.113753        -0.195536         0.187358
 H        -0.805570         3.209556         0.813219
 H        -0.241700         2.615930         2.633520
 H        -1.679265         2.627293         4.110765
 H        -2.900685         1.343475         4.575983
 H        -2.332531        -0.210224         3.086694
 H         0.730220         0.630966         2.955630
 H         0.046568        -0.903784         2.176506
