19
Iteration:    30charge 0 multiplicity 1
 O         0.901105         0.805921         0.248942
 C        -0.166606         0.946932         1.112164
 C        -1.768774         1.195051         0.392097
 C        -1.908643         1.779385         1.840847
 C        -0.465167         2.359540         1.719350
 O        -2.968598         2.303977         2.654456
 C        -2.323961         1.615353         3.805728
 C        -1.751337         0.548278         2.723833
 C        -0.370349        -0.030088         2.390034
 H         1.243431        -0.137038         0.329450
 H        -1.487421         1.923728        -0.399519
 H        -2.527401         0.418816         0.167298
 H        -0.283454         3.279389         0.945250
 H        -0.057667         2.503990         2.711826
 H        -1.482851         2.234093         4.256464
 H        -2.913142         1.426910         4.738760
 H        -2.565988        -0.166601         2.621756
 H         0.563312         0.066535         3.103150
 H        -0.412899        -1.054337         2.061404
