19
Iteration:  3529
 O         0.842404         0.725569         0.209558
 C        -0.228718         1.017768         1.047873
 C        -1.771866         0.889085         0.535484
 C        -1.956456         1.618820         1.828072
 C        -0.639044         2.410409         1.583653
 O        -3.019042         2.194155         2.620526
 C        -2.246601         1.642698         3.857404
 C        -1.573723         0.699242         2.947319
 C        -0.170736         0.295121         2.382324
 H         0.965647         1.331516        -0.552453
 H        -2.071261         1.404902        -0.493177
 H        -2.236729        -0.084603         0.298862
 H        -0.699856         3.110036         0.760004
 H         0.081317         2.666678         2.410640
 H        -1.550328         2.451541         4.182762
 H        -3.001651         1.172701         4.628976
 H        -2.131211        -0.236137         2.831019
 H         0.703014         0.637802         3.041370
 H        -0.248782        -0.831231         2.231280
