19
Iteration:  3029
 O         0.876270         0.761012         0.146776
 C        -0.250524         1.048029         1.039520
 C        -1.762021         0.808800         0.542281
 C        -1.965959         1.620589         1.844488
 C        -0.718794         2.437725         1.597816
 O        -2.924198         2.337740         2.613658
 C        -2.277262         1.588416         3.868572
 C        -1.617903         0.550064         2.884560
 C        -0.122422         0.324495         2.426345
 H         0.804797         1.268540        -0.634627
 H        -1.835682         1.112720        -0.489037
 H        -2.191496        -0.128295         0.644569
 H        -0.954974         3.164666         0.762945
 H        -0.132874         2.752961         2.508520
 H        -1.731596         2.368110         4.373373
 H        -3.020607         1.141554         4.571079
 H        -2.335911        -0.291266         2.936423
 H         0.769409         0.471817         3.134762
 H        -0.081783        -0.755456         2.381228
