19
Iteration:   701charge 0 multiplicity 1
 O         0.796828         0.659667         0.176383
 C        -0.177105         1.045334         1.078447
 C        -1.663981         0.996747         0.480933
 C        -1.849622         1.642287         1.845836
 C        -0.705107         2.595723         1.605579
 O        -2.961305         2.204951         2.672624
 C        -2.273191         1.678195         3.831713
 C        -1.650072         0.630380         2.854878
 C        -0.314446         0.089268         2.354323
 H         1.699383         0.582323         0.592336
 H        -1.776121         1.487524        -0.492813
 H        -1.981758        -0.038659         0.392565
 H        -0.830832         3.280195         0.849394
 H        -0.182449         3.087559         2.581475
 H        -1.496649         2.401024         4.295622
 H        -2.924081         1.306863         4.670334
 H        -2.458109        -0.109757         2.815598
 H         0.537512         0.213013         2.980170
 H        -0.417099        -0.960858         1.908324
