19
Iteration:   676
 O         0.849947         0.735528         0.156359
 C        -0.228308         0.956929         1.061908
 C        -1.676766         0.943197         0.413562
 C        -1.998586         1.676618         1.841664
 C        -0.675703         2.332207         1.651213
 O        -3.009128         2.401291         2.722290
 C        -2.241981         1.657897         3.815572
 C        -1.650996         0.597146         2.817661
 C        -0.230853         0.163467         2.409015
 H         1.734077         0.974925         0.606034
 H        -1.521862         1.490543        -0.573482
 H        -2.170164        -0.066710         0.164207
 H        -0.641453         3.149308         0.909163
 H        -0.188031         2.629614         2.511901
 H        -1.523640         2.375809         4.282827
 H        -2.874723         1.237112         4.636745
 H        -2.373412        -0.276121         2.812256
 H         0.604859         0.524181         3.102326
 H        -0.129742        -0.933917         2.160445
