19
Iteration:  3776
 O         0.828909         0.775306         0.210278
 C        -0.246132         0.998557         1.046476
 C        -1.720087         0.827570         0.530208
 C        -1.928506         1.649126         1.864874
 C        -0.677167         2.338217         1.594877
 O        -3.014476         2.286746         2.605345
 C        -2.278239         1.673315         3.807340
 C        -1.518236         0.690172         2.921150
 C        -0.182106         0.231393         2.400382
 H         0.956541         1.441654        -0.521677
 H        -2.048123         1.313514        -0.331010
 H        -2.233541        -0.142047         0.792885
 H        -0.957390         2.961141         0.794338
 H        -0.127714         2.857544         2.345730
 H        -1.702077         2.365905         4.458827
 H        -2.912971         1.135931         4.436290
 H        -2.266248        -0.109924         2.738961
 H         0.814543         0.406821         2.796975
 H        -0.008102        -0.902888         2.257955
