19
Iteration:  1140charge 0 multiplicity 1
 O         0.970980         0.752842         0.230965
 C        -0.231678         1.071783         0.962098
 C        -1.799750         0.941811         0.480888
 C        -1.984946         1.556975         1.821672
 C        -0.748648         2.343764         1.564806
 O        -2.921071         2.280650         2.693183
 C        -2.233932         1.711877         3.865852
 C        -1.562412         0.604740         2.954876
 C        -0.263514         0.243442         2.386088
 H         0.750580         0.372761        -0.599045
 H        -1.900990         1.598839        -0.371690
 H        -2.247917        -0.015404         0.214431
 H        -0.929314         2.980437         0.819530
 H        -0.207976         2.767827         2.418907
 H        -1.666490         2.453837         4.532942
 H        -2.919813         1.278709         4.544295
 H        -2.210869        -0.237555         2.942307
 H         0.619602         0.577481         2.922713
 H        -0.239849        -0.782913         2.159731
