19
Iteration:  3686charge 0 multiplicity 1
 O         0.914347         0.743859         0.218494
 C        -0.243649         1.053781         1.020561
 C        -1.735281         0.824553         0.555950
 C        -1.930512         1.620173         1.892156
 C        -0.663972         2.405134         1.444131
 O        -2.945908         2.240062         2.700583
 C        -2.321782         1.654812         3.834105
 C        -1.639950         0.634218         2.963149
 C        -0.208047         0.285496         2.353387
 H         0.864274         1.156879        -0.729497
 H        -1.764529         1.565823        -0.204384
 H        -2.361402        -0.084655         0.476586
 H        -0.650063         3.026617         0.535143
 H        -0.212713         2.924193         2.184136
 H        -1.696722         2.305023         4.464116
 H        -3.131112         1.178105         4.419971
 H        -2.284882        -0.229369         2.907919
 H         0.588095         0.698877         2.955302
 H         0.015839        -0.805574         2.331685
