19
Iteration:  1659
 O         0.877269         1.018469         0.255281
 C        -0.260604         0.945556         1.048322
 C        -1.812965         0.866398         0.552285
 C        -2.003233         1.657210         1.808070
 C        -0.689053         2.311921         1.434461
 O        -2.922647         2.318098         2.670987
 C        -2.171281         1.612189         3.919121
 C        -1.621911         0.580656         2.856188
 C        -0.203557         0.180831         2.383287
 H         1.180339         0.141764         0.023636
 H        -1.879471         1.237010        -0.434045
 H        -2.375396        -0.029728         0.624545
 H        -0.744434         2.826747         0.501417
 H        -0.114350         2.917273         2.118891
 H        -1.564180         2.277179         4.437042
 H        -2.893932         1.133896         4.548709
 H        -2.318251        -0.208078         2.913455
 H         0.683105         0.552469         2.982588
 H        -0.156015        -0.856588         2.245879
