19
Iteration:  1274
 O         0.783248         0.699698         0.168990
 C        -0.216251         1.004413         1.042557
 C        -1.756391         0.981694         0.464891
 C        -1.959697         1.713793         1.814082
 C        -0.557687         2.426110         1.409146
 O        -3.082511         2.172970         2.707326
 C        -2.225933         1.610237         3.917670
 C        -1.604648         0.638278         2.943602
 C        -0.161518         0.257323         2.424158
 H         1.579067         0.830652         0.679070
 H        -1.848117         1.502062        -0.520287
 H        -2.324878         0.031056         0.408565
 H        -0.901138         3.051147         0.488413
 H         0.070685         2.889931         2.181327
 H        -1.470114         2.426761         4.323760
 H        -3.003315         1.220930         4.758947
 H        -2.335620        -0.217942         2.834892
 H         0.600097         0.792585         3.052820
 H         0.138540        -0.856581         2.376249
