19
Iteration:  3733
 O         0.874209         0.744401         0.225560
 C        -0.265545         0.933739         1.044601
 C        -1.746010         0.912994         0.497580
 C        -1.994858         1.632504         1.844003
 C        -0.652033         2.397341         1.548795
 O        -3.029355         2.169842         2.686051
 C        -2.171787         1.727131         3.799006
 C        -1.606850         0.638901         2.849537
 C        -0.210066         0.292715         2.423076
 H         0.756563         1.570851        -0.246166
 H        -1.684270         1.454840        -0.413330
 H        -2.138482        -0.130934         0.446985
 H        -0.887657         3.133571         0.825975
 H         0.118084         2.775994         2.222945
 H        -1.574745         2.583437         4.080895
 H        -2.745849         1.341553         4.551109
 H        -2.193505        -0.274439         2.988960
 H         0.578010         0.632722         3.129347
 H        -0.044123        -0.926746         2.550112
