19
Iteration:  1000
 O         0.803777         0.803476         0.152239
 C        -0.217797         1.004014         1.022398
 C        -1.717737         0.896059         0.457043
 C        -1.981177         1.639186         1.828207
 C        -0.640570         2.338142         1.666413
 O        -2.910663         2.318444         2.676004
 C        -2.240986         1.687013         3.805879
 C        -1.641704         0.577761         2.903399
 C        -0.287865         0.143742         2.422537
 H         1.240886         1.602743        -0.199665
 H        -1.882239         1.490487        -0.412184
 H        -2.024122        -0.123203         0.236694
 H        -0.567821         3.165796         1.069024
 H         0.157438         2.515493         2.583942
 H        -1.542224         2.349890         4.346398
 H        -2.999269         1.374378         4.567648
 H        -2.445227        -0.137421         2.864668
 H         0.632917         0.541714         2.957977
 H        -0.190901        -0.943588         2.262662
