19
Iteration:  2245
 O         0.739244         0.912263         0.059785
 C        -0.261552         0.975465         1.045044
 C        -1.718868         0.880412         0.486077
 C        -1.942029         1.602221         1.887272
 C        -0.598363         2.434320         1.584370
 O        -2.972337         2.278551         2.632949
 C        -2.220616         1.573452         3.872427
 C        -1.627319         0.557860         2.916378
 C        -0.210905         0.210231         2.446411
 H         1.588792         0.718394         0.470903
 H        -1.993330         1.506229        -0.364650
 H        -2.150254        -0.060282         0.316133
 H        -0.735170         3.165170         0.741054
 H         0.233018         2.833265         2.245312
 H        -1.667349         2.381098         4.321568
 H        -2.881857         1.206363         4.607922
 H        -2.231576        -0.341845         2.901452
 H         0.439814         0.807274         3.086750
 H         0.014906        -0.853869         2.527544
