19
Iteration:  3148
 O         0.933551         0.730165         0.072894
 C        -0.174764         0.942823         1.007042
 C        -1.784019         0.862707         0.546660
 C        -1.932964         1.704866         1.856912
 C        -0.631108         2.464654         1.527916
 O        -3.073946         2.267720         2.688381
 C        -2.382260         1.570345         3.923096
 C        -1.580665         0.624993         2.926144
 C        -0.154299         0.307952         2.453613
 H         0.695130         1.181976        -0.806702
 H        -1.858322         1.416157        -0.482132
 H        -2.142043        -0.158628         0.553214
 H        -0.545334         3.165449         0.740553
 H        -0.110688         2.744474         2.442698
 H        -1.726427         2.331624         4.269753
 H        -2.949487         1.111434         4.789346
 H        -2.215277        -0.226643         2.765379
 H         0.671412         0.670744         2.861129
 H         0.046665        -0.724397         2.592211
