19
Iteration:  3342
 O         0.934565         0.712596         0.125075
 C        -0.210707         0.976409         1.020861
 C        -1.762318         0.851450         0.491279
 C        -1.984267         1.695441         1.822429
 C        -0.674369         2.473666         1.560697
 O        -2.974940         2.238090         2.748492
 C        -2.379739         1.647394         3.918820
 C        -1.578637         0.676077         2.860298
 C        -0.138402         0.227624         2.448884
 H         0.775737         1.175718        -0.771286
 H        -2.051133         1.196532        -0.506117
 H        -2.327483        -0.061261         0.438612
 H        -0.818656         3.223965         0.810036
 H         0.007211         2.736032         2.373356
 H        -1.743929         2.330419         4.359195
 H        -3.157895         1.233751         4.580290
 H        -2.187454        -0.182254         2.666151
 H         0.777895         0.711901         2.948012
 H         0.056596        -0.934181         2.452220
