19
Iteration:  1158
 O         0.883656         0.740080         0.323927
 C        -0.304196         0.981658         1.023655
 C        -1.688970         0.884718         0.382503
 C        -2.022930         1.581765         1.874520
 C        -0.694347         2.494316         1.504972
 O        -2.946334         2.286475         2.720151
 C        -2.166652         1.682015         3.856898
 C        -1.679725         0.557890         2.931072
 C        -0.185387         0.218968         2.339181
 H         0.599900         0.928086        -0.558627
 H        -1.890645         1.635348        -0.430084
 H        -2.062815        -0.143879         0.145775
 H        -1.025004         3.344483         0.744170
 H        -0.120913         2.986924         2.279837
 H        -1.312963         2.423846         4.050386
 H        -2.784587         1.494419         4.760033
 H        -2.349959        -0.353954         2.944430
 H         0.640269         0.525619         3.042750
 H         0.155656        -0.866111         2.173133
