19
Iteration:  2702charge 0 multiplicity 1
 O         0.705046         0.791261         0.035433
 C        -0.228942         1.026659         1.080517
 C        -1.725172         0.788698         0.561806
 C        -1.949364         1.633287         1.800168
 C        -0.732858         2.451896         1.623713
 O        -2.994122         2.207186         2.646153
 C        -2.308234         1.746908         3.809666
 C        -1.516520         0.690356         2.937931
 C        -0.065878         0.208606         2.454491
 H         1.582343         0.634500         0.333098
 H        -1.837782         1.074212        -0.548587
 H        -2.256350        -0.224367         0.536040
 H        -0.734526         3.188571         0.816394
 H        -0.137661         2.790899         2.455221
 H        -1.582439         2.446556         4.189534
 H        -2.871223         1.343724         4.616468
 H        -2.213484        -0.167298         3.018311
 H         0.827394         0.412949         3.046487
 H         0.101580        -0.807593         2.206732
