19
Iteration:  2296charge 0 multiplicity 1
 O         0.925193         0.726017         0.170176
 C        -0.251557         1.004445         0.976574
 C        -1.715221         0.923198         0.515655
 C        -1.997625         1.653231         1.838886
 C        -0.632243         2.329840         1.589832
 O        -3.054799         2.194127         2.775731
 C        -2.190515         1.643653         3.873399
 C        -1.662615         0.665454         2.867839
 C        -0.238168         0.325377         2.312379
 H         1.255470         1.535680        -0.172184
 H        -1.926400         1.460784        -0.437276
 H        -2.018260        -0.140791         0.362802
 H        -0.687910         3.174244         0.902606
 H        -0.054477         2.619952         2.536085
 H        -1.575556         2.440575         4.347278
 H        -2.809579         1.162960         4.708125
 H        -2.402104        -0.156582         2.730868
 H         0.586681         0.678818         2.879670
 H        -0.103152        -0.826126         2.116187
