19
Iteration:  1816charge 0 multiplicity 1
 O         0.894970         0.961640         0.160389
 C        -0.230974         0.980751         1.046813
 C        -1.692135         0.825252         0.502473
 C        -2.022870         1.615044         1.825514
 C        -0.618063         2.360533         1.566551
 O        -3.048656         2.219875         2.761188
 C        -2.216380         1.697176         3.913802
 C        -1.647969         0.644394         2.851857
 C        -0.205552         0.179472         2.314997
 H         0.931034        -0.007240        -0.116244
 H        -1.736352         1.433794        -0.453613
 H        -2.319938        -0.096363         0.235474
 H        -0.655907         3.154683         0.807781
 H         0.068198         2.848261         2.234018
 H        -1.522856         2.463323         4.134918
 H        -2.832718         1.446987         4.809672
 H        -2.374222        -0.239521         2.938264
 H         0.592770         0.673088         2.834461
 H        -0.146508        -0.985767         2.370263
