19
Iteration:  2318
 O         0.800102         0.805449         0.231931
 C        -0.260947         0.988988         1.059327
 C        -1.819548         0.993821         0.463411
 C        -1.929130         1.607446         1.840487
 C        -0.593297         2.492599         1.556299
 O        -2.988252         2.215615         2.651410
 C        -2.222456         1.643757         3.815942
 C        -1.572385         0.530687         2.908293
 C        -0.140784         0.132843         2.480289
 H         0.652135         1.275064        -0.662466
 H        -1.850833         1.698243        -0.420662
 H        -2.390696         0.097140         0.162719
 H        -0.866779         3.145253         0.726254
 H        -0.135245         3.107746         2.385053
 H        -1.465108         2.290427         4.309761
 H        -3.015730         1.371088         4.598491
 H        -2.236646        -0.344364         2.726332
 H         0.642486         0.570152         3.038431
 H         0.080229        -1.015476         2.322127
