19
Iteration:  2718charge 0 multiplicity 1
 O         0.834100         0.786543         0.020803
 C        -0.210098         1.007662         0.992627
 C        -1.762419         0.888400         0.586686
 C        -1.956346         1.550833         1.953010
 C        -0.604206         2.412380         1.485978
 O        -3.066707         2.156683         2.617035
 C        -2.243679         1.802249         3.883081
 C        -1.569034         0.593626         3.026572
 C        -0.189786         0.254971         2.380901
 H         1.655459         0.890040         0.554991
 H        -2.093963         1.566562        -0.147748
 H        -2.066106        -0.138583         0.374901
 H        -1.014814         3.052317         0.695831
 H        -0.112744         3.017074         2.295069
 H        -1.651792         2.767260         4.133156
 H        -3.053008         1.446595         4.599939
 H        -2.162703        -0.317894         3.064660
 H         0.714379         0.631779         2.949106
 H        -0.130710        -0.914036         2.360895
