19
Iteration:  2505charge 0 multiplicity 1
 O         0.779045         0.691405         0.152261
 C        -0.251985         0.955985         1.053080
 C        -1.740897         0.945933         0.459939
 C        -2.003536         1.660651         1.817072
 C        -0.621865         2.392622         1.559441
 O        -3.020976         2.299436         2.741425
 C        -2.268696         1.602550         3.834451
 C        -1.582288         0.564752         2.860662
 C        -0.102810         0.309629         2.492398
 H         0.963169         1.502746        -0.379567
 H        -1.605611         1.677999        -0.445922
 H        -2.143142        -0.009445         0.040713
 H        -0.621159         3.142808         0.710206
 H        -0.168397         2.669649         2.478103
 H        -1.403823         2.206988         4.281466
 H        -2.974167         1.197704         4.598194
 H        -2.195035        -0.359220         2.809760
 H         0.652964         0.922551         2.994335
 H         0.162228        -0.777043         2.494632
