19
Iteration:  1028charge 0 multiplicity 1
 O         0.832099         0.743437         0.212766
 C        -0.164598         0.957105         1.095601
 C        -1.753369         0.987010         0.521833
 C        -1.935172         1.773899         1.830642
 C        -0.630206         2.474370         1.507931
 O        -3.000401         2.204768         2.759521
 C        -2.218544         1.629723         3.835699
 C        -1.649183         0.596077         2.804898
 C        -0.280706         0.096312         2.398367
 H         1.657476         1.322426         0.291309
 H        -1.797639         1.417822        -0.521002
 H        -2.317716         0.010411         0.429726
 H        -0.839008         2.940012         0.468509
 H         0.062720         3.028911         2.042654
 H        -1.380259         2.293106         4.216735
 H        -2.842627         1.419357         4.712827
 H        -2.494217        -0.082392         2.592046
 H         0.524807         0.462541         2.996436
 H        -0.363851        -0.942258         2.082999
