19
Iteration:  2650charge 0 multiplicity 1
 O         0.890387         0.657095         0.097766
 C        -0.243284         1.004987         0.915894
 C        -1.823337         0.920963         0.579029
 C        -1.928417         1.596978         1.915459
 C        -0.711808         2.444958         1.405420
 O        -2.963342         2.220021         2.674740
 C        -2.397059         1.644208         3.941420
 C        -1.531681         0.630777         2.976869
 C        -0.101870         0.325437         2.427768
 H         1.513541         1.311466         0.359083
 H        -1.862697         1.701759        -0.187280
 H        -2.381473        -0.028456         0.253720
 H        -1.019330         2.924099         0.472297
 H        -0.097643         3.018434         2.143055
 H        -1.577505         2.309387         4.459253
 H        -3.233385         1.267789         4.529069
 H        -2.193292        -0.214674         2.916326
 H         0.718281         0.816333         3.112540
 H         0.088995        -0.748984         2.436723
