19
Iteration:  1767charge 0 multiplicity 1
 O         0.853240         0.889796         0.207237
 C        -0.195637         0.973256         1.048070
 C        -1.874176         0.872030         0.444503
 C        -1.952244         1.667808         1.795864
 C        -0.684676         2.351924         1.537400
 O        -2.938861         2.315609         2.757180
 C        -2.306664         1.598064         3.811539
 C        -1.562104         0.571580         2.906425
 C        -0.130663         0.267355         2.386025
 H         1.135319         0.023205        -0.016522
 H        -2.089844         1.419061        -0.431821
 H        -2.237682        -0.125941         0.461473
 H        -0.822114         3.142644         0.750993
 H        -0.084088         2.877512         2.385778
 H        -1.600971         2.118280         4.598947
 H        -3.186101         1.161684         4.365883
 H        -2.164526        -0.330451         2.867843
 H         0.664927         0.736499         3.034049
 H         0.168730        -0.703248         2.196808
