19
Iteration:  2182charge 0 multiplicity 1
 O         0.826211         0.834116         0.199537
 C        -0.200763         1.038705         1.042470
 C        -1.839429         0.982686         0.534369
 C        -1.923028         1.621556         1.872091
 C        -0.609453         2.528040         1.481123
 O        -2.943397         2.102532         2.718032
 C        -2.307695         1.601696         3.843060
 C        -1.570238         0.584447         2.865398
 C        -0.212919         0.243195         2.374232
 H         1.297021         0.030170         0.227422
 H        -2.178920         1.701858        -0.281696
 H        -2.448961        -0.001467         0.407761
 H        -0.734508         3.125103         0.569675
 H         0.044936         3.056425         2.093402
 H        -1.529581         2.375871         4.289580
 H        -2.918109         1.167732         4.656957
 H        -2.349329        -0.173119         2.709752
 H         0.648454         0.543511         3.079348
 H        -0.054374        -0.795438         2.216838
