19
Iteration:  3113charge 0 multiplicity 1
 O         0.796949         0.808205         0.238846
 C        -0.273659         1.009756         1.113601
 C        -1.726762         0.861079         0.567124
 C        -1.925750         1.589723         1.859136
 C        -0.677249         2.427412         1.518980
 O        -2.974872         2.292984         2.603687
 C        -2.217485         1.604514         3.819548
 C        -1.606529         0.554805         2.955396
 C        -0.121834         0.247576         2.350623
 H         0.506616         1.291418        -0.602402
 H        -1.839138         1.514505        -0.370719
 H        -2.102061        -0.124248         0.396989
 H        -0.715473         3.100151         0.688139
 H        -0.231471         2.942519         2.320817
 H        -1.484752         2.342029         4.171547
 H        -3.062069         1.480074         4.558468
 H        -2.117008        -0.315689         2.671275
 H         0.556959         0.677736         2.933858
 H        -0.132385        -0.849770         2.346548
