19
Iteration:  1645
 O         0.841615         0.948147         0.247175
 C        -0.304851         0.988780         1.064671
 C        -1.818727         0.717272         0.505366
 C        -1.969498         1.701383         1.829444
 C        -0.644385         2.463894         1.498460
 O        -2.923616         2.248801         2.774510
 C        -2.213744         1.616148         3.766875
 C        -1.583778         0.664969         2.841955
 C        -0.225274         0.177473         2.367301
 H         1.146643         0.014598         0.235761
 H        -1.885646         1.359546        -0.342156
 H        -2.069024        -0.349077         0.443606
 H        -0.784570         3.238820         0.629824
 H        -0.011821         2.771706         2.369500
 H        -1.422242         2.361730         4.170391
 H        -2.818726         1.332426         4.650344
 H        -2.262448        -0.174792         2.580688
 H         0.587990         0.467089         2.998609
 H        -0.109388        -0.901052         2.232201
