19
Iteration:  1488
 O         0.835901         0.851378         0.120654
 C        -0.230378         1.013979         1.079357
 C        -1.754733         0.915019         0.492381
 C        -1.956500         1.680136         1.855495
 C        -0.617171         2.414905         1.530382
 O        -3.028992         2.092318         2.663891
 C        -2.244217         1.740517         3.819123
 C        -1.540355         0.663117         2.957662
 C        -0.269646         0.191766         2.415653
 H         1.360105         0.025227         0.377640
 H        -1.791957         1.435679        -0.480201
 H        -2.196498        -0.085612         0.378600
 H        -0.586884         3.203753         0.723828
 H         0.123676         2.756855         2.358269
 H        -1.412068         2.454912         4.207809
 H        -2.878964         1.456367         4.664912
 H        -2.385598        -0.041302         2.913787
 H         0.630799         0.368670         2.985892
 H        -0.483201        -0.883534         2.313841
