19
Iteration:  1582charge 0 multiplicity 1
 O         0.785158         0.868841         0.121665
 C        -0.241674         0.979077         1.085684
 C        -1.848411         0.897470         0.547453
 C        -1.949309         1.724201         1.869626
 C        -0.539252         2.389519         1.589817
 O        -2.997153         2.164484         2.598843
 C        -2.292592         1.650221         3.859151
 C        -1.532710         0.663539         2.899333
 C        -0.146560         0.227949         2.419195
 H         0.809406        -0.047099        -0.129382
 H        -1.836687         1.276177        -0.481634
 H        -2.302992        -0.093536         0.444763
 H        -0.601330         3.067041         0.697096
 H         0.138385         2.636676         2.377167
 H        -1.770480         2.419531         4.302971
 H        -2.998932         1.211132         4.551111
 H        -2.237474        -0.132594         2.787400
 H         0.699195         0.787127         2.990684
 H         0.035736        -0.813924         2.488277
