19
Iteration:   932charge 0 multiplicity 1
 O         0.839177         0.580749         0.267776
 C        -0.275718         1.064158         1.066603
 C        -1.638514         0.961118         0.447246
 C        -1.970004         1.777826         1.809580
 C        -0.587878         2.519119         1.575955
 O        -3.005983         2.264682         2.742803
 C        -2.229978         1.509498         3.898573
 C        -1.636928         0.617014         2.780048
 C        -0.260611         0.238746         2.346649
 H         0.689178         0.839640        -0.716145
 H        -1.766445         1.546279        -0.463018
 H        -2.167973         0.028373         0.309818
 H        -0.519642         3.291806         0.804941
 H         0.050504         2.758442         2.574692
 H        -1.468801         2.041145         4.442681
 H        -2.967162         1.192312         4.622238
 H        -2.366701        -0.154247         2.583667
 H         0.405450         0.744059         3.077728
 H        -0.085518        -0.847763         2.305709
