19
Iteration:  2872
 O         0.876868         0.719597         0.163920
 C        -0.216785         0.999411         1.034553
 C        -1.728583         0.860030         0.430038
 C        -1.993942         1.559956         1.771584
 C        -0.722939         2.434560         1.537987
 O        -3.050298         2.289281         2.782315
 C        -2.248729         1.735680         3.871799
 C        -1.580985         0.614824         2.854772
 C        -0.101224         0.212979         2.466901
 H         0.790788         1.378259        -0.548214
 H        -1.799229         1.636697        -0.357661
 H        -2.062793        -0.138076         0.197967
 H        -0.878057         3.074810         0.626031
 H        -0.263879         2.805839         2.472854
 H        -1.636074         2.452087         4.411403
 H        -2.814056         1.428044         4.789460
 H        -2.247663        -0.298834         2.984471
 H         0.563015         0.624238         3.193612
 H         0.179185        -0.899672         2.281593
