19
Iteration:  4921charge 0 multiplicity 1
 O         0.926620         0.882416         0.158477
 C        -0.239415         1.030948         0.995201
 C        -1.689907         0.757755         0.563103
 C        -2.011276         1.621372         1.874053
 C        -0.817661         2.356459         1.511317
 O        -2.995779         2.338561         2.680474
 C        -2.238451         1.683258         3.864036
 C        -1.539931         0.626783         2.921991
 C        -0.159313         0.220015         2.407341
 H         0.967371        -0.043003        -0.224625
 H        -1.904842         1.371348        -0.401849
 H        -2.140587        -0.226618         0.571506
 H        -1.042076         3.010632         0.605883
 H        -0.352281         3.086076         2.280380
 H        -1.619751         2.360723         4.399643
 H        -2.911420         1.102769         4.444536
 H        -2.208174        -0.182628         2.761790
 H         0.676565         0.518382         3.052710
 H        -0.064134        -0.860960         2.245827
