19
Iteration:   711
 O         0.764130         0.689823         0.191354
 C        -0.204431         1.096887         1.073762
 C        -1.677128         0.994627         0.521699
 C        -1.914610         1.750561         1.902657
 C        -0.556586         2.454150         1.556315
 O        -3.033373         2.190027         2.661795
 C        -2.287650         1.683467         3.828035
 C        -1.601845         0.555739         2.843358
 C        -0.260617         0.131817         2.350883
 H         1.617265         0.535318         0.729389
 H        -1.665252         1.619409        -0.417248
 H        -2.204364         0.012393         0.433225
 H        -0.817659         3.078333         0.796767
 H         0.102520         3.010268         2.316884
 H        -1.624998         2.578167         4.141979
 H        -2.930843         1.231900         4.636419
 H        -2.454524        -0.115926         2.589713
 H         0.541410         0.129323         3.099819
 H        -0.287695        -0.944417         1.902424
