19
Iteration:  2926charge 0 multiplicity 1
 O         0.935270         0.798626         0.134961
 C        -0.190748         0.980070         1.095244
 C        -1.765871         0.852557         0.493540
 C        -1.962944         1.624587         1.782860
 C        -0.721710         2.385807         1.507349
 O        -2.989757         2.219551         2.718040
 C        -2.294562         1.738602         3.916315
 C        -1.575772         0.616925         2.928711
 C        -0.191138         0.181381         2.403960
 H         0.856011         1.630588        -0.412290
 H        -1.704312         1.484193        -0.452972
 H        -2.289537        -0.134242         0.470562
 H        -0.882821         3.029503         0.611634
 H        -0.264166         3.037394         2.258703
 H        -1.532551         2.453111         4.247650
 H        -3.032405         1.594526         4.686242
 H        -2.254013        -0.241792         3.054323
 H         0.644715         0.415228         2.998122
 H        -0.292199        -0.905723         2.158785
