19
Iteration:  4031
 O         0.867184         0.796989         0.234773
 C        -0.256389         0.969568         1.039798
 C        -1.814503         0.852754         0.553700
 C        -1.957822         1.653528         1.821117
 C        -0.607798         2.341189         1.469952
 O        -3.039504         2.241957         2.676159
 C        -2.268673         1.632288         3.835467
 C        -1.626569         0.665138         2.898121
 C        -0.090477         0.289420         2.441151
 H         1.069116         1.477067        -0.502729
 H        -1.911821         1.469362        -0.396941
 H        -2.257418        -0.090951         0.542655
 H        -0.603489         2.912738         0.587382
 H        -0.055851         2.856148         2.245401
 H        -1.581202         2.446815         4.375695
 H        -2.944940         1.340896         4.615380
 H        -2.208583        -0.223473         2.654312
 H         0.847771         0.391436         2.995458
 H        -0.193874        -0.832402         2.402925
