19
Iteration:   349charge 0 multiplicity 1
 O         0.926591         0.779241         0.177761
 C        -0.234807         0.971068         0.998606
 C        -1.761631         1.070480         0.408775
 C        -1.918205         1.680254         1.828955
 C        -0.526203         2.368756         1.719534
 O        -2.982491         2.271789         2.704931
 C        -2.317376         1.675142         3.805177
 C        -1.678583         0.582337         2.859951
 C        -0.348678         0.108024         2.365033
 H         1.427111         0.132309         0.771826
 H        -1.596673         1.692689        -0.474362
 H        -2.278139         0.106551         0.254304
 H        -0.611064         3.193062         1.028108
 H         0.268838         2.525902         2.579349
 H        -1.465269         2.345325         4.153215
 H        -3.084106         1.563058         4.587864
 H        -2.491480        -0.126270         2.643990
 H         0.473716         0.505388         3.046496
 H        -0.385872        -1.003940         2.250144
