19
Iteration:  2627
 O         0.767520         0.690700         0.263922
 C        -0.290009         1.041906         0.997614
 C        -1.801517         0.790419         0.532829
 C        -1.972183         1.686464         1.805984
 C        -0.614053         2.431116         1.530654
 O        -3.016079         2.205013         2.712766
 C        -2.283621         1.648946         3.848772
 C        -1.450650         0.700127         2.884463
 C        -0.103236         0.323540         2.321038
 H         1.291114         1.460991        -0.133597
 H        -1.937325         1.187099        -0.540220
 H        -2.091007        -0.330590         0.595688
 H        -0.838418         3.228481         0.804244
 H        -0.151434         2.602721         2.512146
 H        -1.716119         2.547323         4.420202
 H        -2.998598         1.154305         4.472749
 H        -2.148956        -0.126426         2.896922
 H         0.913547         0.439977         2.859350
 H        -0.227505        -0.747907         2.232132
