19
Iteration:  4402charge 0 multiplicity 1
 O         0.869009         0.710078         0.235153
 C        -0.241681         1.060298         1.093323
 C        -1.804867         0.862207         0.538051
 C        -1.988881         1.653449         1.845189
 C        -0.600803         2.482682         1.479559
 O        -3.052849         2.149747         2.681543
 C        -2.197501         1.684242         3.850401
 C        -1.617075         0.644639         2.887729
 C        -0.165938         0.203289         2.344313
 H         1.044684         1.520378        -0.388764
 H        -1.695616         1.475079        -0.301554
 H        -2.169550        -0.151405         0.504561
 H        -0.731573         2.976006         0.646465
 H        -0.021884         3.122005         2.220866
 H        -1.498637         2.575061         4.174409
 H        -2.897747         1.322774         4.753620
 H        -2.331370        -0.147957         2.836863
 H         0.621631         0.483972         3.042854
 H        -0.042737        -0.812388         2.185882
