19
Iteration:  2740
 O         0.830978         0.769542         0.194078
 C        -0.301130         0.987631         0.973694
 C        -1.831473         0.879006         0.434438
 C        -1.971208         1.603352         1.837968
 C        -0.609737         2.405874         1.458606
 O        -3.040646         2.099710         2.712063
 C        -2.186954         1.750099         3.876246
 C        -1.545008         0.664592         3.002751
 C        -0.149186         0.268189         2.399471
 H         1.429895         1.430689         0.581206
 H        -1.892539         1.479157        -0.456302
 H        -2.380081        -0.031258         0.405111
 H        -0.750195         3.144880         0.650616
 H         0.125312         2.780178         2.233381
 H        -1.551054         2.684738         4.055608
 H        -2.926298         1.494828         4.718552
 H        -2.204859        -0.198048         2.942385
 H         0.697377         0.687054         2.994289
 H        -0.123134        -0.876275         2.377933
