19
Iteration:   682
 O         0.870006         0.700897         0.132316
 C        -0.220804         0.961508         1.045389
 C        -1.638449         0.910203         0.422253
 C        -2.059688         1.726848         1.812237
 C        -0.720287         2.404729         1.683571
 O        -2.988447         2.378144         2.699050
 C        -2.217567         1.654571         3.841427
 C        -1.625226         0.564508         2.850069
 C        -0.242480         0.151005         2.402750
 H         1.662815         0.908996         0.634591
 H        -1.549051         1.550378        -0.432310
 H        -2.155483         0.023495         0.156925
 H        -0.631278         3.192294         0.877452
 H        -0.276285         2.870999         2.698056
 H        -1.549188         2.360386         4.292895
 H        -2.908571         1.266103         4.568582
 H        -2.373439        -0.201144         2.812613
 H         0.606206         0.387096         3.029662
 H        -0.302584        -0.883831         2.163214
