19
Iteration:  4986
 O         0.794047         0.784480         0.082803
 C        -0.237841         1.079239         0.990875
 C        -1.714505         0.798218         0.503149
 C        -1.927845         1.578191         1.868569
 C        -0.690250         2.453405         1.568649
 O        -3.028010         2.181049         2.650893
 C        -2.308048         1.703882         3.878928
 C        -1.507120         0.661282         2.994330
 C        -0.106920         0.300597         2.376689
 H         0.957629        -0.168745         0.311631
 H        -1.851265         1.584078        -0.339940
 H        -2.057582        -0.222305         0.389272
 H        -0.767270         3.287255         0.905248
 H        -0.089058         2.810599         2.449053
 H        -1.968037         2.611603         4.450370
 H        -3.173460         1.249702         4.472337
 H        -2.146070        -0.185586         3.057106
 H         0.699422         0.686448         3.028285
 H        -0.011674        -0.776833         2.157132
