19
Iteration:  4974
 O         0.821045         0.785817         0.086736
 C        -0.226248         0.999550         1.028811
 C        -1.751925         0.929306         0.549517
 C        -1.999198         1.582875         1.841636
 C        -0.657132         2.422382         1.541692
 O        -3.031814         2.152182         2.599593
 C        -2.286688         1.659166         3.885581
 C        -1.536366         0.693112         2.952165
 C        -0.106292         0.363722         2.483036
 H         1.074890        -0.182120        -0.039968
 H        -1.907197         1.495378        -0.433433
 H        -2.260315        -0.000996         0.348441
 H        -0.961204         3.044417         0.837204
 H        -0.227482         2.911267         2.417217
 H        -1.512180         2.404602         4.274626
 H        -2.874919         1.115830         4.761839
 H        -2.050242        -0.253705         2.903657
 H         0.878278         0.637473         2.875095
 H        -0.085290        -0.756241         2.481214
