19
Iteration:  2921
 O         0.921225         0.827333         0.165795
 C        -0.172515         1.012126         1.077398
 C        -1.792481         0.831813         0.522015
 C        -1.980731         1.646714         1.842782
 C        -0.679980         2.396476         1.470932
 O        -2.981040         2.212145         2.684976
 C        -2.280720         1.742379         3.863104
 C        -1.637038         0.605617         2.954009
 C        -0.167000         0.128752         2.379039
 H         0.842969         1.626009        -0.382569
 H        -1.751296         1.414412        -0.373200
 H        -2.353831        -0.161397         0.575617
 H        -0.957222         3.022217         0.627961
 H        -0.135806         2.964505         2.246575
 H        -1.519695         2.480344         4.340698
 H        -2.976133         1.577430         4.748652
 H        -2.353049        -0.229932         2.937472
 H         0.787261         0.449533         2.972187
 H        -0.157930        -0.927212         2.185599
