19
Iteration:  1517charge 0 multiplicity 1
 O         0.917915         0.882278         0.243311
 C        -0.292094         0.985443         1.037398
 C        -1.887712         0.862047         0.451002
 C        -2.026400         1.659077         1.828105
 C        -0.669101         2.394177         1.560819
 O        -2.988284         2.300961         2.693369
 C        -2.200112         1.663657         3.792685
 C        -1.553756         0.535505         2.885341
 C        -0.132694         0.219612         2.438917
 H         1.008528        -0.084487         0.069008
 H        -1.909604         1.399645        -0.505340
 H        -2.441555        -0.095830         0.450932
 H        -0.651772         3.109042         0.790043
 H         0.055657         2.778846         2.170468
 H        -1.345780         2.258127         4.131105
 H        -2.954502         1.464310         4.579132
 H        -2.227716        -0.287912         2.777684
 H         0.734050         0.760462         2.982255
 H        -0.061952        -0.839674         2.440537
