19
Iteration:   742
 O         0.806558         0.781331         0.047495
 C        -0.239621         0.950973         1.001657
 C        -1.798459         0.977458         0.438988
 C        -1.886217         1.737245         1.825066
 C        -0.530087         2.295683         1.662779
 O        -2.957146         2.261577         2.668861
 C        -2.361061         1.637940         3.847280
 C        -1.606589         0.627308         2.870961
 C        -0.207563         0.215170         2.519767
 H         1.572686         0.596785         0.542738
 H        -1.852950         1.659509        -0.489662
 H        -2.479921         0.073511         0.240185
 H        -0.504533         3.170895         1.048732
 H        -0.031770         2.540569         2.538215
 H        -1.922689         2.449802         4.479900
 H        -3.106139         1.122194         4.519944
 H        -2.322277        -0.208807         2.578996
 H         0.527895         0.728371         3.221090
 H         0.022211        -0.899605         2.650661
