19
Iteration:  4778
 O         0.781108         0.773792         0.150664
 C        -0.245486         0.954705         1.048467
 C        -1.679740         0.858610         0.533164
 C        -1.931552         1.638775         1.854567
 C        -0.694469         2.435915         1.547297
 O        -2.990354         2.194810         2.653734
 C        -2.286612         1.687343         3.842078
 C        -1.611548         0.615837         2.892339
 C        -0.110645         0.246979         2.479550
 H         0.610826         1.285343        -0.637350
 H        -1.671544         1.427948        -0.373195
 H        -2.069707        -0.121484         0.659979
 H        -0.939282         3.230658         0.715552
 H        -0.079673         3.128845         2.335157
 H        -1.511825         2.382789         4.103547
 H        -2.985864         1.432512         4.552635
 H        -2.247375        -0.259272         2.844549
 H         0.673883         0.737620         2.995244
 H         0.225478        -0.789194         2.368172
