19
Iteration:  4324
 O         0.837106         0.724441         0.255973
 C        -0.193429         1.052548         1.109682
 C        -1.801837         0.864796         0.555283
 C        -1.947388         1.663332         1.761123
 C        -0.671494         2.454903         1.428461
 O        -2.977248         2.259417         2.676516
 C        -2.228836         1.567361         3.862871
 C        -1.570038         0.647430         2.838483
 C        -0.161952         0.252637         2.462724
 H         0.607350         1.201070        -0.599768
 H        -2.051520         1.397889        -0.434847
 H        -2.186259        -0.116964         0.533527
 H        -0.640112         3.024215         0.596104
 H        -0.206665         3.010378         2.234468
 H        -1.646641         2.301832         4.498006
 H        -2.994402         1.024431         4.601356
 H        -2.248195        -0.203333         2.767314
 H         0.577088         0.631394         3.155596
 H        -0.124827        -0.830000         2.310326
