19
Iteration:  4269charge 0 multiplicity 1
 O         0.849105         0.731102         0.213751
 C        -0.261473         0.990255         1.093281
 C        -1.883638         0.939490         0.533927
 C        -1.937897         1.648057         1.785551
 C        -0.604246         2.394673         1.516354
 O        -2.977696         2.183025         2.695667
 C        -2.296941         1.682111         3.769115
 C        -1.572461         0.587136         2.887684
 C        -0.098975         0.298174         2.482219
 H         0.809552         1.479013        -0.504750
 H        -1.674607         1.478873        -0.487957
 H        -2.449162         0.083828         0.372986
 H        -0.804474         2.923042         0.686114
 H         0.037120         2.833834         2.276536
 H        -1.621553         2.481113         4.091894
 H        -2.986806         1.203957         4.549711
 H        -2.236934        -0.295131         2.928843
 H         0.693132         0.723622         3.056839
 H         0.097316        -0.803929         2.468179
