19
Iteration:  2270
 O         0.830931         0.786480         0.156697
 C        -0.244353         1.019221         1.106728
 C        -1.780178         0.897573         0.502493
 C        -1.972046         1.705115         1.829915
 C        -0.739642         2.525284         1.525786
 O        -2.936834         2.221701         2.722720
 C        -2.251714         1.600137         3.844841
 C        -1.592137         0.598783         2.885385
 C        -0.149832         0.124966         2.361177
 H         1.574906         1.282559         0.445969
 H        -1.864370         1.260432        -0.535462
 H        -2.240426        -0.177050         0.503253
 H        -0.736760         3.235832         0.715675
 H        -0.129037         2.917262         2.273263
 H        -1.625636         2.484436         4.231473
 H        -2.856357         1.295661         4.723968
 H        -2.291137        -0.248057         2.680304
 H         0.766485         0.237752         3.030946
 H        -0.209210        -0.853546         1.985904
