19
Iteration:  2215
 O         0.750398         0.813521         0.004721
 C        -0.136695         0.993031         1.081118
 C        -1.725223         0.899694         0.532930
 C        -1.965255         1.618736         1.829247
 C        -0.615153         2.463333         1.699220
 O        -3.069448         2.214973         2.723934
 C        -2.317915         1.631834         3.842832
 C        -1.557951         0.657355         2.846208
 C        -0.114794         0.241134         2.343536
 H         1.420251         0.148018         0.227181
 H        -1.972628         1.625996        -0.284405
 H        -2.246601        -0.141921         0.480621
 H        -0.647237         3.178330         0.878892
 H        -0.067991         2.719325         2.535040
 H        -1.747381         2.520265         4.348161
 H        -3.017414         1.097864         4.543456
 H        -2.092955        -0.312360         2.801481
 H         0.639119         0.673332         3.096073
 H        -0.033418        -0.801557         2.406678
