19
Iteration:  3631
 O         0.805774         0.672308         0.160663
 C        -0.257831         1.080972         1.053800
 C        -1.729457         0.872930         0.489299
 C        -1.951222         1.638458         1.855631
 C        -0.579789         2.485690         1.575132
 O        -2.984130         2.159463         2.630572
 C        -2.308876         1.684693         3.902938
 C        -1.616820         0.628621         2.859083
 C        -0.123413         0.253998         2.482028
 H         0.801245         1.297877        -0.625854
 H        -1.798129         1.363363        -0.537390
 H        -2.223340        -0.099094         0.342742
 H        -0.953878         3.122685         0.748649
 H        -0.158619         2.942373         2.381299
 H        -1.606389         2.423104         4.269826
 H        -3.020339         1.541823         4.729986
 H        -2.261781        -0.247256         2.846774
 H         0.692633         0.735773         3.061422
 H         0.130850        -0.921912         2.312124
