19
Iteration:  3569charge 0 multiplicity 1
 O         0.889664         0.828667         0.243925
 C        -0.251744         1.005563         1.062281
 C        -1.800463         0.810937         0.566054
 C        -2.001217         1.614547         1.831428
 C        -0.648474         2.397494         1.542773
 O        -2.948050         2.274550         2.637361
 C        -2.189121         1.634815         3.835358
 C        -1.641435         0.603661         2.855920
 C        -0.207025         0.237719         2.417250
 H         0.843097         1.495974        -0.485940
 H        -1.865333         1.407676        -0.284115
 H        -2.162383        -0.243085         0.491210
 H        -0.841451         2.996872         0.634620
 H        -0.146161         3.099168         2.236373
 H        -1.314649         2.280519         4.090449
 H        -2.886747         1.402507         4.612641
 H        -2.336685        -0.251027         2.801816
 H         0.681986         0.515286         2.914759
 H        -0.223359        -0.794976         2.361550
