19
Iteration:  4995charge 0 multiplicity 1
 O         0.777676         0.817775         0.100617
 C        -0.245263         1.086947         1.042838
 C        -1.683468         0.767245         0.536604
 C        -1.954918         1.656262         1.907610
 C        -0.679156         2.468106         1.545059
 O        -2.981270         2.192226         2.687031
 C        -2.408483         1.772751         3.827175
 C        -1.526858         0.614050         2.983539
 C        -0.102827         0.233488         2.284080
 H         1.138122        -0.085948         0.338949
 H        -2.044921         1.204913        -0.455609
 H        -1.840794        -0.287826         0.455878
 H        -0.775111         3.217982         0.950950
 H         0.027919         2.720577         2.272516
 H        -1.794545         2.590465         4.366019
 H        -3.093687         1.052893         4.542075
 H        -2.068373        -0.335926         3.075035
 H         0.709676         0.668918         2.879953
 H         0.144532        -0.862186         2.245182
