19
Iteration:  3431
 O         0.890300         0.768604         0.256772
 C        -0.265767         1.050430         1.077728
 C        -1.777733         0.844440         0.439569
 C        -1.939369         1.650310         1.852938
 C        -0.651589         2.432745         1.497054
 O        -2.985827         2.210533         2.683294
 C        -2.225404         1.680351         3.849383
 C        -1.553928         0.633231         2.934656
 C        -0.249863         0.165341         2.373932
 H         0.685695         1.470274        -0.453270
 H        -2.145063         1.586898        -0.370396
 H        -2.263109        -0.078929         0.442235
 H        -0.670988         2.979910         0.608672
 H        -0.011036         2.940691         2.239758
 H        -1.706958         2.466938         4.170021
 H        -2.939035         1.205118         4.577314
 H        -2.266447        -0.174221         2.856090
 H         0.638382         0.616454         2.957098
 H         0.112898        -0.947241         2.435253
