19
Iteration:  4643
 O         0.844209         0.717113         0.189564
 C        -0.229375         0.964008         1.053485
 C        -1.791182         0.984224         0.573308
 C        -1.888237         1.716749         1.870151
 C        -0.610341         2.505952         1.488360
 O        -3.039477         2.037524         2.664596
 C        -2.311328         1.650626         3.875942
 C        -1.583353         0.688576         2.861026
 C        -0.136770         0.244297         2.437847
 H         0.660547         0.984227        -0.703133
 H        -1.898294         1.443298        -0.457762
 H        -2.247378        -0.072687         0.595890
 H        -0.696910         3.197632         0.634465
 H         0.084109         3.116931         2.364651
 H        -1.650927         2.490848         4.156371
 H        -3.066445         1.279371         4.696594
 H        -2.315668        -0.078341         2.622463
 H         0.791751         0.573105         2.978867
 H         0.009460        -0.850951         2.330968
