19
Iteration:  4978charge 0 multiplicity 1
 O         0.811153         0.777447         0.083564
 C        -0.236572         1.031424         0.991152
 C        -1.726939         0.889357         0.539528
 C        -1.976515         1.549554         1.842196
 C        -0.651081         2.434395         1.571834
 O        -3.034373         2.168115         2.608621
 C        -2.296584         1.668193         3.906391
 C        -1.510121         0.691665         2.969286
 C        -0.112732         0.354796         2.456230
 H         1.041838        -0.162866         0.081754
 H        -1.882829         1.473366        -0.415900
 H        -2.256533        -0.064649         0.315131
 H        -1.011294         3.189757         0.683851
 H        -0.236620         2.864321         2.562673
 H        -1.712870         2.447309         4.395322
 H        -2.922640         1.235926         4.610862
 H        -2.160011        -0.199008         2.931047
 H         0.865192         0.602185         2.919231
 H        -0.087432        -0.724281         2.318300
