19
Iteration:   105
 O         0.830520         0.665600         0.240282
 C        -0.201477         1.016811         1.120662
 C        -1.718246         1.101425         0.485452
 C        -1.932598         1.772232         1.835584
 C        -0.363338         2.355114         1.657193
 O        -2.946142         2.368697         2.590171
 C        -2.338464         1.435632         3.830349
 C        -1.806391         0.547946         2.838637
 C        -0.338469         0.189138         2.389344
 H         1.293983         1.433289        -0.109260
 H        -1.635072         1.698461        -0.471977
 H        -2.170926         0.152512         0.120420
 H        -0.358489         3.342425         1.065618
 H         0.358447         2.395690         2.434578
 H        -1.533587         2.036260         4.338296
 H        -3.263687         1.284262         4.443215
 H        -2.665729        -0.080361         2.553783
 H         0.515235         0.246089         3.155038
 H        -0.365877        -0.858962         2.100515
