19
Iteration:   751
 O         0.761100         0.771609         0.012072
 C        -0.226384         0.976279         1.048072
 C        -1.714452         0.971118         0.491272
 C        -1.938223         1.683405         1.799718
 C        -0.599291         2.336362         1.694575
 O        -2.863593         2.318453         2.657220
 C        -2.375824         1.605207         3.824097
 C        -1.670724         0.614659         2.860466
 C        -0.159843         0.195313         2.540310
 H         1.538158         0.634789         0.502938
 H        -1.769595         1.660891        -0.385615
 H        -2.240443         0.004749         0.271941
 H        -0.823023         3.239119         0.907659
 H         0.054050         2.585132         2.435009
 H        -1.820824         2.170889         4.511369
 H        -3.323318         1.323182         4.252815
 H        -2.293573        -0.312999         2.869078
 H         0.539202         0.736293         3.233361
 H        -0.064445        -0.849105         2.382874
