19
Iteration:   429
 O         0.939896         0.780625         0.280003
 C        -0.243319         0.944173         1.065476
 C        -1.773986         0.969199         0.421685
 C        -1.924881         1.708296         1.804829
 C        -0.574440         2.388505         1.573955
 O        -2.860487         2.400880         2.753291
 C        -2.379579         1.553384         3.792203
 C        -1.713679         0.567814         2.803729
 C        -0.232658         0.180579         2.447644
 H         0.623911         0.555441        -0.665475
 H        -1.793142         1.521986        -0.518361
 H        -2.417393         0.106072         0.397847
 H        -0.587549         3.171966         0.810849
 H         0.052289         2.802274         2.410604
 H        -1.791363         2.161145         4.483839
 H        -3.254288         1.121362         4.341704
 H        -2.431844        -0.262518         2.683117
 H         0.526658         0.359998         3.198999
 H        -0.138129        -0.957464         2.218959
