19
Iteration:  3676
 O         0.895227         0.752551         0.195097
 C        -0.164485         0.957283         1.028113
 C        -1.794924         0.880480         0.498441
 C        -1.900075         1.633769         1.832001
 C        -0.675008         2.421296         1.461917
 O        -2.973858         2.255150         2.685959
 C        -2.387675         1.644212         3.921469
 C        -1.597912         0.642771         2.946312
 C        -0.138275         0.292702         2.417088
 H         0.589287         1.181625        -0.678434
 H        -2.068691         1.413281        -0.380950
 H        -2.162083        -0.180776         0.378534
 H        -0.636742         3.075147         0.600741
 H        -0.105331         2.695242         2.261869
 H        -1.801620         2.357085         4.489393
 H        -3.077781         1.258846         4.595552
 H        -2.309489        -0.148144         2.775552
 H         0.664372         0.689889         3.038380
 H         0.011077        -0.916367         2.364569
