19
Iteration:   978
 O         0.854360         0.797822         0.188168
 C        -0.270701         0.920625         1.043925
 C        -1.844444         0.954526         0.534418
 C        -1.915444         1.635915         1.858667
 C        -0.549884         2.366575         1.678624
 O        -2.918672         2.355054         2.566597
 C        -2.335293         1.691256         3.838128
 C        -1.651925         0.525945         2.938344
 C        -0.144185         0.141762         2.323488
 H         0.795545         1.489857        -0.501890
 H        -1.905170         1.644756        -0.286580
 H        -2.292816         0.032715         0.257716
 H        -0.613638         3.163153         1.047045
 H        -0.064936         2.628586         2.715326
 H        -1.749037         2.478557         4.362398
 H        -3.003615         1.222668         4.582938
 H        -2.314408        -0.329023         3.006616
 H         0.754034         0.505397         2.924846
 H        -0.092473        -0.904152         2.027678
