19
Iteration:  4777charge 0 multiplicity 1
 O         0.783332         0.763838         0.142844
 C        -0.245015         0.959371         1.053031
 C        -1.678886         0.862421         0.527588
 C        -1.942420         1.628432         1.858907
 C        -0.691973         2.447523         1.550801
 O        -2.992937         2.194559         2.657735
 C        -2.282081         1.699794         3.831752
 C        -1.611019         0.611363         2.892314
 C        -0.107155         0.248395         2.478255
 H         0.636123         1.292546        -0.608213
 H        -1.661031         1.440381        -0.334816
 H        -2.052612        -0.156835         0.621760
 H        -0.961829         3.209354         0.757296
 H        -0.087582         3.110741         2.355635
 H        -1.549344         2.363530         4.126048
 H        -3.012546         1.458817         4.566970
 H        -2.219919        -0.265328         2.873106
 H         0.672509         0.740207         2.989908
 H         0.228946        -0.803667         2.334611
