19
Iteration:  2750
 O         0.807198         0.760663         0.204975
 C        -0.274524         0.939159         1.066107
 C        -1.839029         0.857940         0.477201
 C        -1.987497         1.676836         1.804229
 C        -0.662199         2.420251         1.518192
 O        -3.041478         2.156018         2.729722
 C        -2.170643         1.751632         3.804878
 C        -1.506928         0.646185         2.841001
 C        -0.146562         0.246781         2.433291
 H         1.509692         1.473290         0.315469
 H        -2.017700         1.300490        -0.462048
 H        -2.225090        -0.159873         0.372775
 H        -0.777924         3.114139         0.682305
 H        -0.300884         2.907047         2.448486
 H        -1.483039         2.573130         4.245651
 H        -2.725091         1.315534         4.686190
 H        -2.134404        -0.216151         2.967540
 H         0.822031         0.614421         2.854402
 H         0.060357        -0.841110         2.394810
