19
Iteration:  4477charge 0 multiplicity 1
 O         0.869180         0.737510         0.102326
 C        -0.218070         0.986278         1.050170
 C        -1.666940         0.813556         0.560889
 C        -1.926732         1.728284         1.901817
 C        -0.604633         2.507907         1.525947
 O        -3.035722         2.169674         2.644766
 C        -2.344691         1.644913         3.933151
 C        -1.586795         0.676632         2.900485
 C        -0.173861         0.220446         2.387715
 H         0.514077         1.139811        -0.652706
 H        -1.827279         1.305352        -0.381047
 H        -2.256506        -0.026681         0.608058
 H        -0.799977         3.185708         0.695593
 H        -0.043627         2.985494         2.396939
 H        -1.802933         2.451296         4.312036
 H        -3.177822         1.102116         4.468587
 H        -2.287277        -0.131236         2.816700
 H         0.622906         0.577982         3.067557
 H        -0.071256        -0.825675         2.394924
