19
Iteration:  3435
 O         0.891574         0.775571         0.249948
 C        -0.251831         1.056429         1.077098
 C        -1.798166         0.865595         0.516347
 C        -1.955710         1.603819         1.851596
 C        -0.648200         2.462563         1.509811
 O        -2.979574         2.234401         2.655976
 C        -2.219251         1.632867         3.834711
 C        -1.565516         0.651511         2.909535
 C        -0.232981         0.168142         2.381547
 H         0.631641         1.352352        -0.443356
 H        -2.136031         1.464535        -0.342573
 H        -2.360721        -0.120684         0.278866
 H        -0.656096         3.023738         0.495116
 H         0.078263         2.939665         2.179942
 H        -1.561633         2.539098         4.242758
 H        -2.953998         1.183493         4.478478
 H        -2.236297        -0.263263         2.934367
 H         0.543745         0.584019         3.072563
 H         0.061353        -0.936782         2.448570
