19
Iteration:  2380
 O         0.925962         0.864149         0.079840
 C        -0.243855         0.953099         1.024535
 C        -1.727541         0.940695         0.444747
 C        -1.980044         1.688121         1.836254
 C        -0.603778         2.388997         1.518289
 O        -3.004290         2.233815         2.782791
 C        -2.314838         1.586340         3.948002
 C        -1.602204         0.636800         2.884204
 C        -0.244891         0.240201         2.414981
 H         1.322548        -0.067645         0.150564
 H        -1.588709         1.581783        -0.438521
 H        -2.314098        -0.025446         0.213091
 H        -0.833215         3.088513         0.714574
 H        -0.007077         2.909562         2.279818
 H        -1.688113         2.251667         4.575873
 H        -3.095416         1.201997         4.660170
 H        -2.358105        -0.170400         2.728752
 H         0.665422         0.477932         3.004017
 H        -0.304424        -0.799022         2.258385
