19
Iteration:  1108
 O         0.723314         0.934829         0.105237
 C        -0.263647         0.939514         1.064906
 C        -1.710563         0.882784         0.633088
 C        -1.877326         1.740246         1.829990
 C        -0.477383         2.377681         1.543880
 O        -3.007936         2.213618         2.660426
 C        -2.335126         1.655895         3.812896
 C        -1.603671         0.624503         2.872113
 C        -0.208280         0.169061         2.447835
 H         0.758222        -0.072579        -0.101520
 H        -1.708956         1.369396        -0.318792
 H        -2.212620        -0.063291         0.699772
 H        -0.357572         2.953431         0.712524
 H         0.113370         2.846555         2.370491
 H        -1.694928         2.371544         4.241143
 H        -3.040891         1.245719         4.484905
 H        -2.293055        -0.103738         2.551227
 H         0.590239         0.473330         3.078839
 H         0.045973        -0.841664         2.374222
