19
Iteration:  2756
 O         0.800218         0.749467         0.185718
 C        -0.235968         0.956373         1.109309
 C        -1.817457         0.823890         0.542216
 C        -2.015821         1.683764         1.767735
 C        -0.749984         2.416133         1.570301
 O        -3.025364         2.214415         2.709589
 C        -2.149043         1.707502         3.778968
 C        -1.525133         0.677981         2.795818
 C        -0.111434         0.218506         2.434232
 H         1.437128         1.429656         0.134827
 H        -1.892337         1.463641        -0.404454
 H        -2.122064        -0.264966         0.627701
 H        -0.726391         3.080818         0.691740
 H        -0.366943         2.932193         2.447507
 H        -1.487746         2.393254         4.246104
 H        -2.582339         1.240309         4.672073
 H        -2.223211        -0.187703         2.898291
 H         0.713605         0.754942         2.913430
 H         0.041303        -0.859425         2.263938
