19
Iteration:  4522charge 0 multiplicity 1
 O         0.836564         0.707952         0.245597
 C        -0.275683         1.051024         1.040951
 C        -1.759330         0.924101         0.467902
 C        -1.944533         1.583727         1.837108
 C        -0.724857         2.424957         1.584582
 O        -2.986356         2.171691         2.614586
 C        -2.156343         1.728740         3.849954
 C        -1.623070         0.564955         2.950770
 C        -0.172320         0.295045         2.380992
 H         0.919528         1.334252        -0.448658
 H        -1.695775         1.559911        -0.362299
 H        -2.223036        -0.022772         0.363124
 H        -0.958285         3.206879         0.883726
 H        -0.153813         2.832442         2.517215
 H        -1.367095         2.460802         3.942488
 H        -2.900437         1.277487         4.628135
 H        -2.207454        -0.325282         2.935187
 H         0.667915         0.658651         3.010477
 H         0.124578        -0.715879         2.224695
