19
Iteration:  1233
 O         0.680064         0.737068         0.011794
 C        -0.235041         1.075280         1.046941
 C        -1.710924         0.810274         0.505772
 C        -1.913598         1.599600         1.892402
 C        -0.638874         2.479101         1.636245
 O        -2.949810         2.290370         2.575450
 C        -2.329424         1.701027         3.877121
 C        -1.539929         0.594229         2.945820
 C        -0.109660         0.216801         2.493239
 H         1.658751         0.547261         0.153104
 H        -1.708396         1.458431        -0.400307
 H        -2.204696        -0.149348         0.263433
 H        -0.947593         3.217463         0.776654
 H        -0.175140         2.817196         2.561307
 H        -1.928663         2.443728         4.474314
 H        -3.179184         1.239471         4.445615
 H        -2.140455        -0.354146         2.923111
 H         0.635315         0.732463         3.108359
 H        -0.028970        -0.885263         2.321517
