19
Iteration:  2512
 O         0.764494         0.680872         0.153019
 C        -0.246860         0.969566         1.054840
 C        -1.682694         0.967191         0.449559
 C        -2.021377         1.652596         1.847934
 C        -0.622376         2.391287         1.507495
 O        -2.985457         2.255950         2.759904
 C        -2.256454         1.599648         3.849800
 C        -1.652298         0.617326         2.864025
 C        -0.099241         0.296534         2.461959
 H         1.137990         1.562837        -0.196660
 H        -1.630532         1.752156        -0.323304
 H        -2.067599         0.032336         0.017196
 H        -0.838087         2.901714         0.600106
 H        -0.060235         2.912692         2.310907
 H        -1.641703         2.359285         4.290178
 H        -2.912423         1.108136         4.630523
 H        -2.211789        -0.349779         2.784493
 H         0.598600         0.783713         3.101477
 H         0.069903        -0.769995         2.555350
