19
Iteration:   917
 O         0.838600         0.569825         0.287264
 C        -0.176017         1.035839         1.022944
 C        -1.788046         1.065287         0.453499
 C        -1.966345         1.678145         1.834532
 C        -0.619106         2.417275         1.641290
 O        -2.942867         2.326892         2.774644
 C        -2.259409         1.538396         3.757372
 C        -1.695279         0.569659         2.795203
 C        -0.161087         0.290212         2.423715
 H         0.805667         0.937927        -0.596852
 H        -1.763696         1.683142        -0.486479
 H        -2.188184         0.007958         0.256486
 H        -0.972094         3.282566         0.742651
 H        -0.070629         2.901543         2.487824
 H        -1.622927         2.307252         4.189271
 H        -2.959678         1.058317         4.457531
 H        -2.289469        -0.366208         2.558479
 H         0.696103         0.695982         2.976953
 H        -0.042525        -0.778303         2.095219
