19
Iteration:  4137charge 0 multiplicity 1
 O         0.775899         0.700834         0.180112
 C        -0.233195         1.042140         1.043175
 C        -1.718813         0.865105         0.428145
 C        -1.913408         1.627369         1.841655
 C        -0.662994         2.419197         1.495943
 O        -2.961295         2.261012         2.649175
 C        -2.404033         1.658046         3.914184
 C        -1.515226         0.643814         3.014996
 C        -0.064682         0.231426         2.439705
 H         0.786343         1.378288        -0.591330
 H        -1.996369         1.294629        -0.619428
 H        -2.109059        -0.159215         0.371402
 H        -0.823040         3.220740         0.755150
 H        -0.083886         3.007175         2.370972
 H        -1.902301         2.493758         4.391828
 H        -3.272749         1.198639         4.491486
 H        -2.229707        -0.226389         2.891507
 H         0.715480         0.664254         3.024384
 H        -0.026783        -0.891964         2.317516
