19
Iteration:  3331
 O         0.886607         0.682514         0.177695
 C        -0.225286         0.968072         0.956874
 C        -1.791520         0.804265         0.545418
 C        -1.903976         1.706367         1.889386
 C        -0.667877         2.537327         1.544279
 O        -2.964693         2.239564         2.691404
 C        -2.328247         1.600203         3.845599
 C        -1.594967         0.627410         2.908362
 C        -0.170460         0.295377         2.397338
 H         0.722177         1.122700        -0.699774
 H        -1.729352         1.517463        -0.254305
 H        -2.164834        -0.157643         0.450709
 H        -0.742006         3.393701         0.891650
 H        -0.262784         2.917163         2.482692
 H        -1.822803         2.314808         4.409780
 H        -3.037776         1.116222         4.535133
 H        -2.310025        -0.158556         2.758334
 H         0.610267         0.741540         3.112766
 H         0.117209        -0.814953         2.163497
