19
Iteration:  2090charge 0 multiplicity 1
 O         0.800875         0.897498         0.140063
 C        -0.280409         0.987585         1.021599
 C        -1.723374         0.937195         0.443197
 C        -2.013331         1.625369         1.833231
 C        -0.524473         2.363251         1.636594
 O        -3.028668         2.121625         2.677377
 C        -2.298238         1.676105         3.955528
 C        -1.545224         0.689896         2.876664
 C        -0.171686         0.253223         2.318145
 H         1.154688        -0.041413         0.034297
 H        -2.031164         1.333086        -0.488750
 H        -2.263770         0.034296         0.547504
 H        -0.356025         3.207344         0.975889
 H         0.047545         2.646791         2.611191
 H        -1.759968         2.611145         4.335855
 H        -2.992727         1.229715         4.730329
 H        -2.236872        -0.191417         2.920870
 H         0.644618         0.540216         2.853634
 H         0.053461        -0.841535         2.177068
