19
Iteration:  3938
 O         0.876727         0.748918         0.273915
 C        -0.223096         1.044507         1.002167
 C        -1.746735         0.879613         0.478024
 C        -1.993476         1.635473         1.861152
 C        -0.609149         2.468912         1.412239
 O        -3.057656         2.216454         2.691481
 C        -2.203292         1.684774         3.836392
 C        -1.631846         0.581478         2.958175
 C        -0.197577         0.201430         2.430756
 H         0.916089         1.216332        -0.514109
 H        -1.816437         1.542290        -0.365174
 H        -2.218429        -0.203708         0.381479
 H        -0.711503         3.214557         0.484922
 H        -0.048043         2.999952         2.244292
 H        -1.520261         2.448911         4.290779
 H        -2.817804         1.183433         4.671504
 H        -2.331030        -0.273326         3.043197
 H         0.595433         0.474796         3.097140
 H         0.045062        -0.787606         2.279039
