19
Iteration:  2254charge 0 multiplicity 1
 O         0.700463         0.893863         0.142074
 C        -0.240664         1.029838         1.085557
 C        -1.712672         0.903462         0.558350
 C        -1.900483         1.605536         1.858816
 C        -0.609056         2.374342         1.494669
 O        -2.957316         2.242043         2.668795
 C        -2.227668         1.620349         3.850205
 C        -1.596443         0.555815         2.866609
 C        -0.220425         0.208752         2.382114
 H         1.549761         0.942672         0.607818
 H        -1.824011         1.668629        -0.205364
 H        -2.183251         0.014350         0.343448
 H        -0.902312         2.889618         0.545126
 H        -0.126489         3.116144         2.284795
 H        -1.500026         2.188258         4.351920
 H        -3.050875         1.283723         4.465178
 H        -2.312655        -0.255037         2.914790
 H         0.570730         0.566763         3.006944
 H        -0.087555        -0.945952         2.352142
