19
Iteration:  2427
 O         0.877216         0.900847         0.179768
 C        -0.226808         1.018204         1.012217
 C        -1.765870         0.893341         0.491731
 C        -2.004156         1.640886         1.800280
 C        -0.648544         2.356638         1.619805
 O        -2.971230         2.268053         2.729403
 C        -2.179078         1.640825         3.799833
 C        -1.672158         0.586995         2.849946
 C        -0.230071         0.205953         2.363307
 H         1.227329         0.014633         0.263372
 H        -1.932683         1.558330        -0.443570
 H        -2.295382        -0.084187         0.437443
 H        -0.548084         3.210253         1.018611
 H        -0.129754         2.557927         2.485626
 H        -1.422707         2.373273         4.194942
 H        -2.731997         1.248869         4.703045
 H        -2.433876        -0.204411         2.958311
 H         0.493352         0.629435         3.001665
 H        -0.064788        -0.891917         2.384036
