19
Iteration:   208
 O         0.983974         0.795278         0.358597
 C        -0.262688         0.977000         1.064448
 C        -1.746849         1.070683         0.330584
 C        -1.968440         1.653719         1.794949
 C        -0.544970         2.305478         1.676928
 O        -2.880936         2.345921         2.728513
 C        -2.339143         1.752673         3.891696
 C        -1.732801         0.534953         2.751830
 C        -0.291771         0.031443         2.308578
 H         0.634191         0.720980        -0.599823
 H        -1.615981         1.798897        -0.428151
 H        -2.193266         0.091680         0.244850
 H        -0.736566         2.934683         0.882535
 H         0.166094         2.753871         2.492624
 H        -1.798815         2.413095         4.626922
 H        -3.213295         1.270681         4.345823
 H        -2.479400        -0.258642         2.857811
 H         0.478203         0.405118         3.037498
 H        -0.301332        -1.077144         2.126233
