19
Iteration:  2870
 O         0.871911         0.704282         0.154873
 C        -0.192776         1.011024         1.033874
 C        -1.700831         0.874614         0.427516
 C        -2.001604         1.572923         1.793633
 C        -0.722369         2.438530         1.525186
 O        -3.062037         2.289323         2.787236
 C        -2.253807         1.729825         3.877392
 C        -1.577498         0.599828         2.861499
 C        -0.123557         0.211418         2.468990
 H         0.755091         1.347331        -0.510662
 H        -1.840027         1.668873        -0.375918
 H        -2.082372        -0.213140         0.103396
 H        -0.905224         3.023107         0.625916
 H        -0.291921         2.855457         2.438176
 H        -1.602485         2.453800         4.385400
 H        -2.777675         1.459028         4.730765
 H        -2.150187        -0.336416         2.951733
 H         0.570986         0.620556         3.187273
 H         0.172855        -0.819697         2.337173
