19
Iteration:   783
 O         0.745152         0.703266         0.150652
 C        -0.229886         1.035727         1.091387
 C        -1.648985         0.912975         0.554708
 C        -1.907373         1.777170         1.850629
 C        -0.555367         2.485282         1.577066
 O        -2.944399         2.302380         2.686203
 C        -2.341515         1.567249         3.839974
 C        -1.679226         0.605653         2.819002
 C        -0.246485         0.118209         2.379323
 H         1.632725         1.101193         0.422015
 H        -1.739522         1.394080        -0.417199
 H        -2.050283        -0.095516         0.599644
 H        -0.712585         3.196309         0.587705
 H         0.133576         2.941930         2.259334
 H        -1.638241         2.119077         4.405045
 H        -3.201589         1.238760         4.403467
 H        -2.464484        -0.140946         2.702255
 H         0.591458         0.208183         3.094087
 H        -0.123538        -0.859161         2.010063
