19
Iteration:  3858
 O         0.875135         0.692600         0.181233
 C        -0.212996         1.047366         1.035701
 C        -1.792454         0.886872         0.552745
 C        -2.010067         1.609364         1.853146
 C        -0.568202         2.464044         1.548092
 O        -3.043988         2.192929         2.638884
 C        -2.274558         1.676854         3.839011
 C        -1.551515         0.680414         2.896814
 C        -0.191985         0.239079         2.455932
 H         0.895110         1.282298        -0.535543
 H        -2.110632         1.370385        -0.398427
 H        -1.972682        -0.143991         0.472478
 H        -0.620198         3.217951         0.695388
 H        -0.066774         2.913028         2.410300
 H        -1.668010         2.433307         4.214632
 H        -2.872447         1.103151         4.589880
 H        -2.171446        -0.185493         2.745600
 H         0.678613         0.643133         2.997474
 H        -0.230584        -0.835395         2.313893
