19
Iteration:  2041charge 0 multiplicity 1
 O         0.833802         0.859387         0.132459
 C        -0.188611         1.065818         1.077662
 C        -1.795586         0.809734         0.538366
 C        -1.925519         1.709492         1.834479
 C        -0.627726         2.496785         1.485864
 O        -2.989677         2.238466         2.747374
 C        -2.237092         1.510508         3.870443
 C        -1.659072         0.610676         2.835178
 C        -0.217940         0.250571         2.423332
 H         1.023299        -0.062437         0.181871
 H        -1.808061         1.307871        -0.467374
 H        -2.182577        -0.226724         0.341834
 H        -0.593984         3.204658         0.629234
 H        -0.116406         3.045779         2.284751
 H        -1.450563         2.019383         4.378017
 H        -2.975511         1.197224         4.582655
 H        -2.361413        -0.152587         2.491392
 H         0.644887         0.684104         3.111588
 H         0.068321        -0.796910         2.407489
