19
Iteration:  1971charge 0 multiplicity 1
 O         0.776514         0.946163         0.136073
 C        -0.265943         1.003609         1.103235
 C        -1.629364         0.880066         0.494712
 C        -1.960351         1.646707         1.819785
 C        -0.614443         2.418581         1.636120
 O        -3.051904         2.124707         2.661364
 C        -2.200560         1.686633         3.842646
 C        -1.603017         0.647430         2.913266
 C        -0.217184         0.160809         2.355652
 H         0.800179         0.025299        -0.123256
 H        -1.799129         1.504198        -0.404299
 H        -2.220027        -0.108341         0.360612
 H        -0.560837         3.111944         0.829152
 H        -0.051679         2.769602         2.514887
 H        -1.502945         2.546475         4.072116
 H        -2.714531         1.510647         4.811850
 H        -2.297913        -0.200491         2.754742
 H         0.540620         0.531965         3.032377
 H         0.036635        -0.926457         2.208473
