19
Iteration:  1661charge 0 multiplicity 1
 O         0.877202         1.020612         0.252561
 C        -0.228306         0.933396         1.040970
 C        -1.811413         0.868411         0.532020
 C        -1.996716         1.648796         1.825063
 C        -0.696058         2.319526         1.426470
 O        -2.930569         2.323829         2.664322
 C        -2.169252         1.621250         3.920604
 C        -1.638302         0.573435         2.875457
 C        -0.197345         0.186889         2.385224
 H         1.170319         0.162272        -0.006269
 H        -1.955077         1.314645        -0.496236
 H        -2.456607        -0.022693         0.675654
 H        -0.755944         2.808965         0.517430
 H        -0.128425         2.908788         2.135785
 H        -1.539309         2.236774         4.518612
 H        -2.907756         1.130095         4.537288
 H        -2.343594        -0.251882         2.912330
 H         0.703145         0.541123         2.978426
 H        -0.142980        -0.924672         2.289543
