19
Iteration:  3783charge 0 multiplicity 1
 O         0.819819         0.776676         0.241057
 C        -0.274914         0.991537         0.994502
 C        -1.729024         0.795851         0.570156
 C        -1.935710         1.695557         1.818050
 C        -0.638576         2.359029         1.583579
 O        -3.019386         2.298311         2.614135
 C        -2.259646         1.610854         3.840517
 C        -1.551175         0.689795         2.927903
 C        -0.145869         0.211060         2.401755
 H         0.781638         1.462227        -0.540923
 H        -1.980659         1.363515        -0.359038
 H        -2.163612        -0.259137         0.555584
 H        -0.695058         3.100410         0.664618
 H        -0.133907         2.903892         2.377944
 H        -1.671712         2.462645         4.292958
 H        -3.098287         1.127486         4.492976
 H        -2.167187        -0.190418         2.787200
 H         0.758089         0.600076         2.881539
 H        -0.077548        -0.796930         2.332048
