19
Iteration:  2890charge 0 multiplicity 1
 O         0.867974         0.842358         0.262739
 C        -0.251547         0.980986         1.027446
 C        -1.815729         0.774666         0.520230
 C        -1.999160         1.680304         1.849474
 C        -0.657832         2.347249         1.577115
 O        -2.941202         2.231013         2.634327
 C        -2.204461         1.685583         3.805475
 C        -1.584182         0.654980         2.924549
 C        -0.196287         0.253060         2.358040
 H         0.771591         1.501473        -0.461783
 H        -1.992817         1.183252        -0.518529
 H        -2.431725        -0.258687         0.557064
 H        -0.743423         3.132119         0.840263
 H        -0.137250         2.621977         2.489918
 H        -1.507704         2.440012         4.273525
 H        -2.879406         1.337715         4.568218
 H        -2.135658        -0.250408         2.828475
 H         0.781924         0.596501         2.768800
 H        -0.102446        -0.780354         2.357672
