19
Iteration:   225charge 0 multiplicity 1
 O         0.979137         0.691589         0.244084
 C        -0.180257         0.989328         1.017145
 C        -1.637768         1.026030         0.488738
 C        -1.923545         1.705208         1.889373
 C        -0.586945         2.406956         1.709327
 O        -2.983707         2.355502         2.645350
 C        -2.360568         1.666504         3.852474
 C        -1.735857         0.563432         2.862207
 C        -0.344505         0.059308         2.299362
 H         0.848852         1.092712        -0.666676
 H        -1.761884         1.701180        -0.418655
 H        -2.194107         0.139001         0.084454
 H        -0.543557         3.316463         0.975362
 H        -0.205886         2.597774         2.661116
 H        -1.437933         2.186586         4.178167
 H        -3.071211         1.351444         4.648771
 H        -2.583175        -0.113695         2.676399
 H         0.540131         0.186579         2.967289
 H        -0.340064        -0.993168         2.047672
