19
Iteration:  2151charge 0 multiplicity 1
 O         0.886118         0.935450         0.226175
 C        -0.263935         0.942146         0.973837
 C        -1.733355         0.819067         0.414915
 C        -2.041280         1.621774         1.817451
 C        -0.719953         2.363122         1.601871
 O        -2.959106         2.319628         2.786590
 C        -2.220519         1.574898         3.859663
 C        -1.600234         0.631549         2.839359
 C        -0.174039         0.280075         2.386863
 H         1.127575         0.150410        -0.369151
 H        -2.022568         1.429363        -0.486372
 H        -2.339373        -0.207949         0.364169
 H        -0.601779         3.208992         0.889644
 H        -0.158232         2.626786         2.515664
 H        -1.410072         2.225854         4.308268
 H        -2.812972         1.245439         4.761624
 H        -2.228200        -0.271310         2.683912
 H         0.724409         0.782072         2.931111
 H        -0.133823        -0.832081         2.274513
