19
Iteration:  1419charge 0 multiplicity 1
 O         0.768883         0.795283         0.129145
 C        -0.243513         0.947690         1.091165
 C        -1.732513         0.912488         0.547840
 C        -1.968745         1.750304         1.825209
 C        -0.594429         2.405351         1.444434
 O        -2.954449         2.245420         2.724044
 C        -2.290066         1.562403         3.874506
 C        -1.624060         0.580323         2.818475
 C        -0.187423         0.292378         2.465605
 H         1.569840         0.454984         0.636268
 H        -1.707698         1.440149        -0.408561
 H        -2.293458        -0.017688         0.377330
 H        -0.650291         2.739585         0.451853
 H         0.036536         2.972191         2.086213
 H        -1.553319         2.283849         4.402207
 H        -3.150681         1.408043         4.610856
 H        -2.311528        -0.253573         2.729135
 H         0.535278         0.870010         3.115195
 H         0.115942        -0.738493         2.341135
