19
Iteration:  1352
 O         0.748375         0.845146         0.007986
 C        -0.211332         0.971735         1.044498
 C        -1.766177         0.957626         0.517271
 C        -1.990628         1.689131         1.850092
 C        -0.563242         2.380962         1.588480
 O        -3.008486         2.180713         2.562149
 C        -2.214314         1.714864         3.843134
 C        -1.610326         0.604952         2.924347
 C        -0.168263         0.093617         2.624302
 H         1.536582         1.259692         0.306433
 H        -1.892676         1.590088        -0.392877
 H        -2.210761        -0.042431         0.332264
 H        -0.610312         2.887312         0.537932
 H         0.012068         2.908731         2.371509
 H        -1.647474         2.662485         4.235652
 H        -2.895006         1.357430         4.808869
 H        -2.319420        -0.278761         2.857299
 H         0.633392         0.541219         3.287226
 H        -0.220316        -1.037676         2.618937
