19
Iteration:  3975
 O         0.848681         0.684371         0.219972
 C        -0.272426         1.008704         1.023571
 C        -1.774199         0.880477         0.562267
 C        -1.929160         1.657967         1.809423
 C        -0.613123         2.490572         1.566788
 O        -3.090080         2.256645         2.676186
 C        -2.283746         1.645410         3.793228
 C        -1.516053         0.573298         2.903859
 C        -0.104374         0.270605         2.409684
 H         0.816074         1.000161        -0.699001
 H        -1.864781         1.281236        -0.515176
 H        -2.261816        -0.062825         0.485528
 H        -0.608890         3.270409         0.861431
 H        -0.146040         2.799211         2.544440
 H        -1.758108         2.642693         4.350600
 H        -2.943201         1.186195         4.502790
 H        -2.249035        -0.278708         2.754187
 H         0.604349         0.864642         3.012209
 H         0.128707        -0.868351         2.343650
