19
Iteration:  3849
 O         0.803867         0.668182         0.256859
 C        -0.204508         1.073821         1.060447
 C        -1.805844         0.870893         0.480704
 C        -1.953251         1.666396         1.808355
 C        -0.591745         2.418174         1.585992
 O        -3.011322         2.180718         2.711404
 C        -2.325080         1.679475         3.807988
 C        -1.543154         0.678152         2.842996
 C        -0.125063         0.291135         2.374308
 H         0.940954         1.034305        -0.567327
 H        -1.941397         1.375168        -0.458976
 H        -2.002161        -0.266029         0.507460
 H        -0.780916         3.209048         0.691186
 H        -0.212222         2.898178         2.468844
 H        -1.624659         2.476255         4.209395
 H        -2.964342         1.086491         4.627845
 H        -2.151903        -0.201340         2.939525
 H         0.665737         0.584873         3.053050
 H        -0.088532        -0.699595         2.312419
