19
Iteration:  4250charge 0 multiplicity 1
 O         0.793466         0.818154         0.184655
 C        -0.251789         0.949783         1.072484
 C        -1.745832         0.831816         0.577352
 C        -1.983656         1.691321         1.844605
 C        -0.592685         2.402969         1.581220
 O        -3.038279         2.203496         2.543084
 C        -2.206109         1.678926         3.855479
 C        -1.555796         0.662653         2.895130
 C        -0.140968         0.154885         2.462954
 H         0.620835         1.512260        -0.520936
 H        -2.087263         1.363638        -0.298408
 H        -2.239682        -0.167486         0.460122
 H        -0.624779         3.202962         0.761431
 H        -0.059716         2.943945         2.514865
 H        -1.507253         2.445473         4.128907
 H        -2.864372         1.460465         4.552853
 H        -2.299049        -0.107380         2.744435
 H         0.689836         0.613795         2.983083
 H        -0.050710        -0.869779         2.361332
