19
Iteration:  1979charge 0 multiplicity 1
 O         0.813200         0.955030         0.116188
 C        -0.240896         1.037876         1.094056
 C        -1.749103         0.912259         0.500838
 C        -1.940377         1.600237         1.851512
 C        -0.585308         2.386690         1.657269
 O        -3.021056         2.126959         2.622632
 C        -2.184429         1.703025         3.831149
 C        -1.610098         0.595794         2.945930
 C        -0.240058         0.195433         2.389563
 H         0.797740         0.074657        -0.221455
 H        -1.840889         1.429860        -0.436751
 H        -1.932806        -0.155448         0.431929
 H        -0.765762         3.112789         0.795092
 H        -0.051660         3.012515         2.455359
 H        -1.314073         2.397470         4.080849
 H        -3.035646         1.491533         4.583144
 H        -2.423609        -0.201029         2.832985
 H         0.609123         0.511487         2.928186
 H        -0.176129        -0.936290         2.287769
