19
Iteration:  2228charge 0 multiplicity 1
 O         0.816849         0.853216        -0.066242
 C        -0.221168         1.043027         0.980199
 C        -1.766968         0.885477         0.520183
 C        -1.940540         1.678596         1.804117
 C        -0.619317         2.322042         1.675021
 O        -3.003222         2.207725         2.744116
 C        -2.334634         1.647647         3.843718
 C        -1.622789         0.605358         2.875839
 C        -0.114132         0.282049         2.508987
 H         1.521725         0.367661         0.411479
 H        -1.797196         1.322825        -0.508369
 H        -2.304060        -0.179344         0.443125
 H        -0.587391         3.254293         1.148483
 H        -0.317266         2.567009         2.671495
 H        -1.486294         2.255749         4.379152
 H        -3.121648         1.424588         4.654794
 H        -2.342451        -0.254312         2.771878
 H         0.752342         0.730592         3.091437
 H         0.033052        -0.809226         2.382875
