19
Iteration:  2495
 O         0.827418         0.712962         0.156170
 C        -0.255107         0.987463         1.055882
 C        -1.824444         0.893421         0.466967
 C        -1.935991         1.662581         1.770238
 C        -0.638021         2.395909         1.659060
 O        -2.988603         2.293544         2.677410
 C        -2.253498         1.581858         3.801637
 C        -1.560281         0.574869         2.882367
 C        -0.143858         0.305028         2.463658
 H         0.653946         1.313656        -0.646772
 H        -1.953268         1.446560        -0.525131
 H        -2.473271         0.003274         0.577738
 H        -0.483970         3.427078         1.242003
 H        -0.112775         2.610318         2.600844
 H        -1.528142         2.303108         4.340485
 H        -3.004629         1.363060         4.561611
 H        -2.179776        -0.307823         2.688530
 H         0.663437         0.872034         3.013887
 H         0.269942        -0.735858         2.411524
