19
Iteration:  4773
 O         0.794744         0.724490         0.125932
 C        -0.238159         0.988157         1.071832
 C        -1.680662         0.861691         0.527994
 C        -1.976782         1.596812         1.865827
 C        -0.676840         2.484753         1.571892
 O        -3.004478         2.196730         2.666897
 C        -2.276711         1.725063         3.795711
 C        -1.597013         0.597058         2.902338
 C        -0.102362         0.252760         2.461541
 H         0.695722         1.398302        -0.622932
 H        -1.691349         1.531749        -0.375528
 H        -2.022958        -0.224235         0.417458
 H        -1.021462         3.142425         0.833132
 H        -0.172612         2.947339         2.354257
 H        -1.544327         2.454305         4.274780
 H        -3.068002         1.511060         4.628194
 H        -2.193336        -0.338692         2.945726
 H         0.716432         0.784051         3.032775
 H         0.177259        -0.810266         2.263947
