19
Iteration:   367charge 0 multiplicity 1
 O         0.831393         0.762392         0.222689
 C        -0.232865         0.990910         1.088224
 C        -1.649869         1.096326         0.483298
 C        -1.983465         1.659211         1.890425
 C        -0.521448         2.359703         1.731404
 O        -3.036788         2.343711         2.553661
 C        -2.247700         1.688035         3.824747
 C        -1.707737         0.563566         2.874441
 C        -0.211331         0.073677         2.269615
 H         1.241820        -0.170401         0.325131
 H        -1.868372         1.930078        -0.188525
 H        -2.198462         0.173887         0.173902
 H        -0.582828         3.118107         0.881820
 H        -0.142117         2.554582         2.631994
 H        -1.645535         2.489932         4.216208
 H        -2.918296         1.208461         4.517586
 H        -2.334770        -0.326490         2.965025
 H         0.578556         0.318725         2.939015
 H        -0.253361        -0.943459         1.968080
