19
Iteration:  4606
 O         0.832096         0.650154         0.134095
 C        -0.265473         1.054826         1.030589
 C        -1.714678         0.907048         0.480588
 C        -1.963968         1.606016         1.836739
 C        -0.702106         2.454846         1.664706
 O        -2.973888         2.161322         2.644734
 C        -2.301698         1.689755         3.878135
 C        -1.568031         0.622623         2.886425
 C        -0.112922         0.321609         2.427238
 H         0.744984         1.285528        -0.647759
 H        -1.874609         1.616008        -0.455211
 H        -2.068692        -0.099691         0.246197
 H        -0.877880         3.254471         0.901445
 H        -0.184522         2.771993         2.539676
 H        -1.653340         2.421226         4.273853
 H        -2.863777         1.393534         4.702406
 H        -2.144085        -0.329401         2.910513
 H         0.692499         0.793046         3.062970
 H        -0.016268        -0.761205         2.353158
