19
Iteration:  1883charge 0 multiplicity 1
 O         0.865815         0.882262         0.030855
 C        -0.210080         0.974904         1.037990
 C        -1.715813         0.844881         0.515371
 C        -1.989322         1.691299         1.793798
 C        -0.593393         2.411634         1.574043
 O        -3.019797         2.228667         2.754509
 C        -2.331129         1.537501         3.884112
 C        -1.563832         0.757654         2.856474
 C        -0.212713         0.228777         2.506033
 H         1.026448        -0.015603        -0.286672
 H        -1.780710         1.320676        -0.489873
 H        -2.351251        -0.140913         0.464067
 H        -0.708996         3.227079         0.888656
 H        -0.013125         2.884457         2.323855
 H        -1.605573         2.020918         4.524975
 H        -3.127693         1.075169         4.451937
 H        -2.301492        -0.095574         2.780566
 H         0.564798         0.704919         3.084576
 H         0.095346        -0.885699         2.477543
