19
Iteration:  2147
 O         0.865823         0.953316         0.226168
 C        -0.303905         0.942385         0.994025
 C        -1.727919         0.797160         0.409386
 C        -2.019351         1.598040         1.822140
 C        -0.677441         2.385342         1.595287
 O        -2.912859         2.302167         2.794475
 C        -2.224442         1.601536         3.839432
 C        -1.633042         0.629977         2.847765
 C        -0.188700         0.252664         2.390861
 H         1.041947         0.250503        -0.373688
 H        -1.915698         1.462020        -0.483184
 H        -2.165037        -0.215096         0.330231
 H        -0.743183         3.199324         0.858780
 H        -0.308402         2.675986         2.561068
 H        -1.464480         2.371752         4.310411
 H        -2.811215         1.184497         4.643508
 H        -2.278129        -0.236714         2.711948
 H         0.626368         0.745422         2.914972
 H         0.006884        -0.782366         2.215469
