19
Iteration:  3076
 O         0.950464         0.750349         0.230326
 C        -0.223067         0.960732         1.025306
 C        -1.763705         0.850219         0.462259
 C        -2.049711         1.654227         1.810350
 C        -0.634365         2.400305         1.534073
 O        -3.093130         2.110712         2.738578
 C        -2.188246         1.725923         3.881995
 C        -1.549607         0.728040         2.914896
 C        -0.256565         0.263907         2.331975
 H         0.988167         1.587857        -0.331950
 H        -1.946750         1.532222        -0.251434
 H        -2.196490        -0.154980         0.204500
 H        -0.570853         3.104818         0.669766
 H        -0.250423         2.786964         2.519766
 H        -1.313775         2.392902         4.235889
 H        -2.794936         1.481646         4.734318
 H        -2.368583        -0.014783         2.952563
 H         0.775391         0.530015         2.804858
 H        -0.119937        -0.813952         2.234203
