19
Iteration:  1048charge 0 multiplicity 1
 O         0.830591         0.685167         0.216915
 C        -0.306047         1.039752         0.991610
 C        -1.791107         0.949103         0.501086
 C        -1.971616         1.642794         1.814584
 C        -0.525987         2.476739         1.534495
 O        -2.970235         2.254800         2.684824
 C        -2.221370         1.568389         3.879785
 C        -1.573900         0.648344         2.853069
 C        -0.242943         0.222191         2.365797
 H         1.444500         0.982234         0.937100
 H        -1.981000         1.528126        -0.445491
 H        -2.366608        -0.011950         0.370246
 H        -0.620666         3.349789         0.766896
 H        -0.162139         2.800995         2.445980
 H        -1.557617         2.324816         4.504710
 H        -2.973018         1.161244         4.646803
 H        -2.349557        -0.197769         2.802619
 H         0.626715         0.542704         3.003506
 H        -0.291605        -0.870513         2.049659
