19
Iteration:  2114charge 0 multiplicity 1
 O         0.845188         1.006816         0.078271
 C        -0.222633         0.982604         1.088265
 C        -1.757537         0.892280         0.626652
 C        -1.913330         1.622949         1.878457
 C        -0.602419         2.439828         1.539269
 O        -3.010346         2.242955         2.644994
 C        -2.261288         1.595089         3.801761
 C        -1.645193         0.573444         2.914246
 C        -0.170920         0.125967         2.468411
 H         0.922557         0.122035        -0.397938
 H        -1.965967         1.576409        -0.262943
 H        -2.206738        -0.138794         0.445900
 H        -0.862267         3.100881         0.716985
 H        -0.247954         3.084897         2.341232
 H        -1.430526         2.442153         3.960109
 H        -2.831275         1.359621         4.687087
 H        -2.359671        -0.246098         2.753704
 H         0.732807         0.041609         3.061860
 H        -0.287798        -0.895282         2.121008
