19
Iteration:  4806
 O         0.921130         0.862498         0.206600
 C        -0.215180         1.002880         1.051218
 C        -1.905672         0.785576         0.591620
 C        -2.019646         1.632590         1.797633
 C        -0.551676         2.415217         1.408433
 O        -2.993356         2.255941         2.746462
 C        -2.303142         1.603491         3.833599
 C        -1.574296         0.678560         2.863853
 C        -0.138752         0.299232         2.470559
 H         0.596184         0.590786        -0.717817
 H        -1.961409         1.306455        -0.436056
 H        -2.271831        -0.329230         0.600256
 H        -0.608960         3.140444         0.679699
 H         0.036786         2.860877         2.104349
 H        -1.633758         2.326108         4.469321
 H        -3.161133         0.932948         4.346807
 H        -2.163735        -0.288217         2.913414
 H         0.746736         0.591707         3.122695
 H         0.018368        -0.808855         2.273268
