19
Iteration:  2166
 O         0.989382         0.880958         0.167937
 C        -0.241162         1.018310         1.017545
 C        -1.902544         0.925641         0.510461
 C        -2.021715         1.709917         1.824965
 C        -0.640630         2.371762         1.512908
 O        -3.070211         2.265283         2.748313
 C        -2.168621         1.551688         3.894264
 C        -1.611664         0.585582         2.846309
 C        -0.138877         0.244086         2.368547
 H         0.949867        -0.091320         0.154829
 H        -1.822548         1.432046        -0.409474
 H        -2.303011        -0.031498         0.486974
 H        -0.862775         3.100535         0.719075
 H        -0.089434         2.747147         2.474917
 H        -1.560894         2.284099         4.320359
 H        -2.926905         1.128807         4.548314
 H        -2.209619        -0.337862         2.823971
 H         0.643802         0.655754         2.951993
 H         0.116085        -0.880151         2.368775
