19
Iteration:  3143
 O         0.952196         0.757455         0.043136
 C        -0.230715         0.938033         1.036561
 C        -1.793613         0.851316         0.476224
 C        -1.947838         1.715437         1.833621
 C        -0.618175         2.447025         1.556091
 O        -3.058885         2.249545         2.694127
 C        -2.333480         1.563628         3.905957
 C        -1.606467         0.644809         2.957264
 C        -0.162461         0.300872         2.472591
 H         0.641622         1.163905        -0.732128
 H        -1.877165         1.301703        -0.435894
 H        -2.196254        -0.181849         0.608688
 H        -0.467262         3.187652         0.698182
 H        -0.100049         2.872124         2.442358
 H        -1.604318         2.315817         4.434188
 H        -3.137765         1.283435         4.654517
 H        -2.166024        -0.297049         2.676212
 H         0.850790         0.752020         3.078602
 H         0.014644        -0.825037         2.718512
