19
Iteration:  4204
 O         0.897869         0.783014         0.271019
 C        -0.252821         0.966732         1.031712
 C        -1.775092         0.910327         0.504499
 C        -1.968092         1.594492         1.867715
 C        -0.757884         2.372450         1.519772
 O        -3.010335         2.249121         2.626318
 C        -2.191123         1.728737         3.895852
 C        -1.584175         0.649328         2.929178
 C        -0.156804         0.193154         2.372560
 H         0.947571         1.223282        -0.550414
 H        -1.802085         1.402720        -0.555541
 H        -2.201433        -0.038199         0.302731
 H        -0.888018         2.995163         0.673274
 H        -0.034560         2.967091         2.249039
 H        -1.565556         2.516938         4.184012
 H        -2.802679         1.181079         4.551824
 H        -2.253848        -0.241806         2.947898
 H         0.634493         0.620536         2.913028
 H        -0.064497        -0.906134         2.280895
