19
Iteration:  4641
 O         0.841613         0.705391         0.188286
 C        -0.239980         0.975883         1.070326
 C        -1.786332         0.967559         0.562539
 C        -1.893865         1.734346         1.868447
 C        -0.594794         2.512243         1.500168
 O        -3.057266         2.032141         2.667590
 C        -2.313774         1.661603         3.888933
 C        -1.572528         0.678609         2.848254
 C        -0.132714         0.245905         2.429389
 H         0.621963         1.014903        -0.757372
 H        -1.838724         1.510788        -0.499060
 H        -2.217288        -0.044874         0.628824
 H        -0.667997         3.187837         0.621140
 H         0.086351         3.094929         2.292293
 H        -1.691791         2.438559         4.089618
 H        -3.009657         1.288374         4.704811
 H        -2.313053        -0.123061         2.666245
 H         0.809383         0.557365         3.044416
 H         0.016839        -0.828640         2.306665
