19
Iteration:  4287charge 0 multiplicity 1
 O         0.892921         0.628266         0.239363
 C        -0.224154         1.017050         0.980367
 C        -1.758476         0.906425         0.457659
 C        -1.962024         1.592987         1.846742
 C        -0.664672         2.457223         1.465400
 O        -3.027517         2.279751         2.681435
 C        -2.249293         1.575490         3.944519
 C        -1.591689         0.634113         2.913523
 C        -0.194724         0.364944         2.401700
 H         1.072350         1.324783        -0.500876
 H        -2.098147         1.635631        -0.275528
 H        -2.150528        -0.146495         0.383786
 H        -0.783859         3.278332         0.577560
 H        -0.092793         2.800404         2.340193
 H        -1.544493         2.315976         4.455628
 H        -3.106396         1.065175         4.637942
 H        -2.197896        -0.293768         2.765960
 H         0.587894         0.864168         3.059758
 H         0.146480        -0.738338         2.507112
