19
Iteration:   884
 O         0.860617         0.798830         0.214473
 C        -0.284264         0.946741         1.001246
 C        -1.798235         0.978923         0.491624
 C        -1.887720         1.691891         1.861149
 C        -0.485169         2.297101         1.569112
 O        -2.953860         2.313620         2.661910
 C        -2.314786         1.609081         3.866661
 C        -1.666745         0.616244         2.884274
 C        -0.233693         0.157111         2.420854
 H         1.077436         1.640508        -0.148941
 H        -1.950277         1.531862        -0.473413
 H        -2.317014        -0.022954         0.373276
 H        -0.610216         3.168273         0.637612
 H         0.252599         2.629397         2.332757
 H        -1.821015         2.340072         4.478968
 H        -3.077113         1.156618         4.507427
 H        -2.509968        -0.121718         2.680355
 H         0.710750         0.489478         2.893388
 H        -0.274165        -0.958101         2.362150
