19
Iteration:  1035
 O         0.846545         0.723039         0.232308
 C        -0.245057         1.021627         1.074669
 C        -1.795872         0.962458         0.511590
 C        -1.922355         1.801367         1.836452
 C        -0.637499         2.481574         1.456040
 O        -2.965858         2.182717         2.749461
 C        -2.207397         1.617943         3.813351
 C        -1.645350         0.614408         2.848611
 C        -0.293023         0.112555         2.382778
 H         1.706032         1.140405         0.417450
 H        -1.919180         1.612794        -0.364747
 H        -2.117713        -0.086558         0.426395
 H        -0.559191         3.136767         0.547447
 H         0.093867         2.897008         2.234833
 H        -1.493307         2.440360         4.193656
 H        -2.869492         1.097725         4.608288
 H        -2.455828        -0.167779         2.650985
 H         0.583538         0.328876         3.098465
 H        -0.168980        -1.016879         2.200699
