19
Iteration:  2586
 O         0.817786         0.926382         0.082065
 C        -0.242863         1.009992         1.043968
 C        -1.704912         0.906213         0.453970
 C        -1.963651         1.509629         1.864254
 C        -0.671240         2.337975         1.519656
 O        -2.954458         2.224827         2.660132
 C        -2.229509         1.744218         3.815895
 C        -1.646444         0.587293         2.981017
 C        -0.214345         0.187342         2.618112
 H         0.655047         0.432448        -0.727697
 H        -1.827208         1.652927        -0.242512
 H        -2.213820         0.021307         0.099103
 H        -0.888351         2.986249         0.642979
 H         0.104909         2.878745         2.231305
 H        -1.333768         2.363165         4.068279
 H        -2.824153         1.654861         4.721957
 H        -2.209344        -0.314001         2.927200
 H         0.710062         0.606973         3.176543
 H         0.025025        -0.872528         2.469894
