19
Iteration:  1198
 O         0.877080         0.787413         0.089659
 C        -0.265440         0.935308         1.023934
 C        -1.867915         0.804320         0.509454
 C        -1.892369         1.688614         1.847482
 C        -0.604345         2.433191         1.540793
 O        -3.013719         2.237398         2.636724
 C        -2.282141         1.697680         3.922466
 C        -1.550812         0.661641         2.923724
 C        -0.205054         0.183085         2.446759
 H         1.457750         1.596022         0.259373
 H        -1.996942         1.339669        -0.436489
 H        -2.361993        -0.165933         0.545362
 H        -0.647573         3.259869         0.769419
 H         0.083889         2.805163         2.319403
 H        -1.722017         2.506914         4.328352
 H        -3.014971         1.206069         4.651202
 H        -2.343583        -0.112252         2.776380
 H         0.704997         0.456722         3.003200
 H        -0.019915        -0.919690         2.382086
