19
Iteration:  1980
 O         0.817991         0.956583         0.116960
 C        -0.231141         1.043156         1.083145
 C        -1.766917         0.917865         0.506310
 C        -1.939985         1.595585         1.858616
 C        -0.584919         2.388664         1.654587
 O        -3.015225         2.130461         2.618478
 C        -2.187327         1.705830         3.826997
 C        -1.612278         0.582026         2.943177
 C        -0.237815         0.199790         2.402480
 H         0.805229         0.066525        -0.248696
 H        -1.839501         1.435520        -0.442951
 H        -1.915888        -0.184972         0.442694
 H        -0.795828         3.091836         0.809151
 H        -0.052566         3.004564         2.447858
 H        -1.308095         2.399316         4.099574
 H        -3.042271         1.478388         4.557092
 H        -2.437386        -0.210192         2.868279
 H         0.623297         0.501218         2.910630
 H        -0.218800        -0.943969         2.287633
