19
Iteration:  1075
 O         0.800967         0.759320        -0.007244
 C        -0.248872         0.995285         1.018086
 C        -1.692301         0.968711         0.511578
 C        -1.959032         1.628152         1.875024
 C        -0.624617         2.401521         1.604753
 O        -2.955677         2.319965         2.703735
 C        -2.359064         1.665624         3.817918
 C        -1.611162         0.553924         2.917153
 C        -0.118820         0.191397         2.469232
 H         1.319695         0.161619         0.576572
 H        -1.823758         1.658552        -0.301191
 H        -2.164214         0.042521         0.238876
 H        -0.654535         3.117652         0.872276
 H        -0.301436         2.747951         2.628897
 H        -1.750274         2.327976         4.331997
 H        -3.095013         1.300608         4.479928
 H        -2.328620        -0.205865         2.821458
 H         0.500159         0.767454         3.101435
 H         0.078521        -0.819812         2.332876
