19
Iteration:  1266
 O         0.721831         0.720002         0.130841
 C        -0.189381         1.002624         1.051205
 C        -1.754941         0.850989         0.512883
 C        -1.957879         1.785211         1.868196
 C        -0.509172         2.408481         1.488110
 O        -3.125856         2.176164         2.705463
 C        -2.211767         1.611378         3.864422
 C        -1.592531         0.624148         2.844727
 C        -0.165744         0.296691         2.429337
 H         1.603359         0.699714         0.557879
 H        -1.606598         1.496694        -0.367482
 H        -2.461610         0.022078         0.321254
 H        -0.593228         3.222762         0.634742
 H         0.098305         2.997575         2.185540
 H        -1.539531         2.373531         4.215787
 H        -2.930337         1.258276         4.679824
 H        -2.318732        -0.228392         2.826851
 H         0.531690         0.840282         3.107122
 H         0.184736        -0.761365         2.547685
