19
Iteration:  2457
 O         0.859167         0.903697         0.162862
 C        -0.210889         0.970712         1.044910
 C        -1.615205         0.914101         0.457694
 C        -1.930468         1.716776         1.900766
 C        -0.629615         2.438046         1.446758
 O        -3.025696         2.226274         2.704607
 C        -2.344848         1.657380         3.912523
 C        -1.624011         0.622671         3.041923
 C        -0.186712         0.067031         2.349179
 H         0.601652         0.300611        -0.572651
 H        -1.688844         1.501127        -0.499154
 H        -2.337284         0.061899         0.263681
 H        -0.732572         3.092862         0.600071
 H         0.109132         2.950967         2.164018
 H        -1.712579         2.461587         4.250794
 H        -3.005021         1.231985         4.739496
 H        -2.402915        -0.223477         3.058222
 H         0.738021         0.067887         2.939078
 H        -0.460859        -0.938123         2.140449
