19
Iteration:  4719
 O         0.831612         0.822469         0.213857
 C        -0.210766         0.986624         1.098722
 C        -1.801533         0.894004         0.583833
 C        -1.941689         1.658716         1.820290
 C        -0.605906         2.423838         1.417449
 O        -3.066229         2.151953         2.684809
 C        -2.206536         1.671810         3.838403
 C        -1.604983         0.638784         2.886063
 C        -0.169633         0.196284         2.434617
 H         1.298140         1.628740        -0.190481
 H        -2.035978         1.295521        -0.418083
 H        -2.360652        -0.073235         0.416976
 H        -0.698116         2.917581         0.471508
 H        -0.053803         2.935201         2.225595
 H        -1.477503         2.366609         4.090201
 H        -2.865268         1.444109         4.767790
 H        -2.283498        -0.219463         2.875864
 H         0.686508         0.565457         3.090654
 H        -0.028658        -0.877221         2.145045
