19
Iteration:  2960charge 0 multiplicity 1
 O         0.811103         0.665077         0.254116
 C        -0.265802         1.017160         1.047097
 C        -1.758963         0.917994         0.504810
 C        -1.968772         1.646236         1.817508
 C        -0.643986         2.464776         1.597978
 O        -3.006772         2.170656         2.664491
 C        -2.242760         1.671220         3.857255
 C        -1.589642         0.574400         2.873182
 C        -0.135806         0.364465         2.368406
 H         0.881138         1.216848        -0.537392
 H        -1.793127         1.274150        -0.579471
 H        -2.276274        -0.064111         0.457639
 H        -0.818206         3.223874         0.774463
 H        -0.084875         2.770342         2.497492
 H        -1.457702         2.365385         4.078892
 H        -2.949151         1.526166         4.708053
 H        -2.112855        -0.416550         2.734330
 H         0.639057         0.748418         2.978934
 H         0.305701        -0.678440         2.202181
