19
Iteration:   598charge 0 multiplicity 1
 O         0.787132         0.570844         0.177634
 C        -0.207940         1.016242         0.960938
 C        -1.672807         1.014182         0.435812
 C        -1.922423         1.686522         1.873339
 C        -0.545638         2.414206         1.680024
 O        -2.958310         2.281367         2.618135
 C        -2.330534         1.597839         3.843289
 C        -1.663897         0.646714         2.885141
 C        -0.256052         0.241431         2.445023
 H         1.560655         1.211032         0.143864
 H        -1.883413         1.729604        -0.424212
 H        -2.287686         0.055341         0.259877
 H        -0.884616         3.396809         1.118560
 H        -0.012931         2.681860         2.551857
 H        -1.678474         2.337533         4.376610
 H        -3.149972         1.182342         4.465870
 H        -2.382036        -0.213637         2.682112
 H         0.672065         0.612129         3.042136
 H        -0.085348        -0.822389         2.365144
