19
Iteration:  1588charge 0 multiplicity 1
 O         0.783387         0.852099         0.119904
 C        -0.296563         1.000182         1.074654
 C        -1.859602         0.974313         0.461722
 C        -1.949888         1.729360         1.861337
 C        -0.545736         2.354201         1.573204
 O        -2.973158         2.132891         2.581454
 C        -2.322306         1.666422         3.890594
 C        -1.522126         0.635135         2.948603
 C        -0.109601         0.216522         2.456658
 H         0.843106        -0.100183        -0.021610
 H        -1.725603         1.255683        -0.601178
 H        -2.217099        -0.078428         0.506282
 H        -0.638542         3.231258         0.861768
 H         0.108037         2.821930         2.391457
 H        -1.645508         2.562858         4.212598
 H        -2.993437         1.221532         4.661425
 H        -2.252776        -0.244350         3.009779
 H         0.646417         0.775344         2.917318
 H         0.116582        -0.894089         2.436148
