19
Iteration:  4724charge 0 multiplicity 1
 O         0.834550         0.796577         0.229527
 C        -0.220985         0.964863         1.070223
 C        -1.814419         0.887985         0.549602
 C        -1.931922         1.657857         1.861773
 C        -0.632767         2.453863         1.447407
 O        -3.066985         2.124648         2.697659
 C        -2.250670         1.704344         3.817350
 C        -1.561728         0.627004         2.899154
 C        -0.157388         0.189271         2.396419
 H         1.257939         1.553046        -0.089803
 H        -1.945754         1.534053        -0.340590
 H        -2.341407        -0.068627         0.519315
 H        -0.549235         2.949571         0.420286
 H        -0.022394         2.941999         2.314749
 H        -1.543483         2.623344         4.085262
 H        -2.746512         1.510048         4.710400
 H        -2.290765        -0.190042         2.763128
 H         0.616501         0.627517         2.968123
 H         0.055215        -0.833444         2.117750
