19
Iteration:   197
 O         0.923288         0.856895         0.403518
 C        -0.255214         0.941850         1.056909
 C        -1.773759         1.067526         0.377959
 C        -1.947847         1.672388         1.824735
 C        -0.539734         2.293344         1.590802
 O        -2.869596         2.405027         2.680095
 C        -2.319930         1.613669         3.794304
 C        -1.687016         0.563065         2.837672
 C        -0.343135         0.076155         2.369558
 H         0.848225         0.522560        -0.481107
 H        -1.795073         1.689952        -0.490801
 H        -2.324154         0.220173        -0.021753
 H        -0.447424         3.093635         0.913132
 H         0.018904         2.569740         2.565250
 H        -1.568297         2.124297         4.431775
 H        -3.069260         1.114657         4.426924
 H        -2.458946        -0.217057         2.766101
 H         0.599673         0.211940         2.956192
 H        -0.319194        -1.025729         2.183789
