19
Iteration:  4302charge 0 multiplicity 1
 O         0.891674         0.594760         0.263295
 C        -0.265231         1.052841         0.972096
 C        -1.690914         0.806633         0.509050
 C        -1.960938         1.732218         1.833547
 C        -0.715561         2.516805         1.481474
 O        -2.992686         2.282394         2.782458
 C        -2.311716         1.556649         3.849288
 C        -1.611615         0.623380         2.887846
 C        -0.146610         0.325212         2.372630
 H         1.095147         1.146679        -0.497596
 H        -1.727096         1.293569        -0.547636
 H        -2.066023        -0.174903         0.466194
 H        -0.943126         3.205227         0.774784
 H        -0.166593         3.086317         2.203271
 H        -1.675537         2.296010         4.394064
 H        -2.976775         1.121800         4.722729
 H        -2.286619        -0.230605         2.745911
 H         0.694872         0.801967         2.834074
 H         0.037080        -0.730867         2.111259
