19
Iteration:  4310charge 0 multiplicity 1
 O         0.866743         0.618873         0.266827
 C        -0.211902         1.047354         1.053694
 C        -1.722515         0.806832         0.489040
 C        -2.031277         1.720674         1.863061
 C        -0.686720         2.518318         1.493521
 O        -2.962085         2.251798         2.786479
 C        -2.297876         1.598552         3.832704
 C        -1.586967         0.656342         2.817076
 C        -0.151737         0.318421         2.360379
 H         0.984292         1.114637        -0.517710
 H        -1.812414         1.248990        -0.551080
 H        -2.067005        -0.198982         0.622133
 H        -1.073227         3.164046         0.552472
 H        -0.097368         3.099235         2.179721
 H        -1.596405         2.295154         4.416703
 H        -3.184362         1.049083         4.512692
 H        -2.213152        -0.258281         2.647841
 H         0.709879         0.601823         3.026524
 H         0.083115        -0.826254         2.155655
