19
Iteration:  2655
 O         0.867553         0.687291         0.055171
 C        -0.229826         0.977537         0.959431
 C        -1.812553         0.909963         0.595705
 C        -1.908768         1.619346         1.912969
 C        -0.695192         2.421251         1.374055
 O        -2.952954         2.215704         2.689171
 C        -2.384134         1.634655         3.921596
 C        -1.571409         0.589561         2.948522
 C        -0.096152         0.370652         2.487629
 H         1.682783         1.232189         0.325088
 H        -1.948684         1.599501        -0.258923
 H        -2.322958         0.069816         0.239904
 H        -1.081594         3.104253         0.578967
 H        -0.154573         3.004104         2.122627
 H        -1.697359         2.270222         4.367625
 H        -3.240969         1.465758         4.671433
 H        -2.308609        -0.242899         2.768509
 H         0.658407         0.719270         3.112134
 H         0.096843        -0.735557         2.561071
