19
Iteration:  1782charge 0 multiplicity 1
 O         0.868381         0.969552         0.183698
 C        -0.226873         1.044878         1.087153
 C        -1.861867         0.804657         0.549372
 C        -2.007885         1.588682         1.810950
 C        -0.679660         2.444388         1.490104
 O        -2.835387         2.336722         2.676515
 C        -2.251126         1.527687         3.882566
 C        -1.612457         0.593341         2.786543
 C        -0.179103         0.200531         2.436165
 H         0.981590         0.000232         0.177463
 H        -1.683745         1.429825        -0.373949
 H        -2.468008        -0.122987         0.535088
 H        -0.803593         2.986689         0.589091
 H        -0.268074         2.913382         2.364924
 H        -1.693312         2.276750         4.351357
 H        -2.945651         1.038715         4.623536
 H        -2.397948        -0.202409         2.758003
 H         0.679289         0.510395         3.023125
 H        -0.155482        -0.946446         2.472025
