19
Iteration:  1931
 O         0.899084         0.880753         0.209448
 C        -0.239915         1.059940         0.967891
 C        -1.822690         0.916615         0.542215
 C        -1.918653         1.622367         1.897348
 C        -0.655135         2.427679         1.479027
 O        -2.921353         2.205995         2.652762
 C        -2.284900         1.585854         3.920788
 C        -1.639733         0.511798         2.880309
 C        -0.219616         0.287504         2.370141
 H         1.118027        -0.096733         0.155821
 H        -2.066727         1.591372        -0.297465
 H        -2.342896        -0.017346         0.353481
 H        -0.777527         3.258324         0.745331
 H         0.013580         2.873194         2.232762
 H        -1.670866         2.401677         4.264892
 H        -2.948080         1.148641         4.648070
 H        -2.359481        -0.272614         2.859923
 H         0.632004         0.743869         3.034641
 H         0.067513        -0.735311         2.314370
