19
Iteration:  3169charge 0 multiplicity 1
 O         0.777901         0.666878         0.246485
 C        -0.271590         1.081773         1.076388
 C        -1.759695         0.905826         0.524441
 C        -1.937273         1.652118         1.867172
 C        -0.623017         2.490906         1.524269
 O        -2.977676         2.160702         2.650006
 C        -2.305154         1.631277         3.827664
 C        -1.531728         0.619747         2.920252
 C        -0.111781         0.307417         2.356073
 H         0.805843         1.146542        -0.550367
 H        -1.850364         1.576137        -0.418871
 H        -2.081762        -0.100779         0.537443
 H        -0.893690         3.060806         0.680400
 H         0.033524         2.974004         2.215510
 H        -1.775826         2.304369         4.515821
 H        -3.256260         1.193872         4.338796
 H        -2.167919        -0.214118         2.815170
 H         0.716530         0.515147         2.931194
 H         0.088396        -0.751463         2.243332
