19
Iteration:   935charge 0 multiplicity 1
 O         0.838808         0.602108         0.253802
 C        -0.253404         1.045533         1.058768
 C        -1.641996         0.934116         0.450953
 C        -1.950228         1.793043         1.818256
 C        -0.579402         2.567464         1.568926
 O        -3.006222         2.235539         2.734234
 C        -2.212227         1.507983         3.910035
 C        -1.665574         0.628818         2.819677
 C        -0.281306         0.211793         2.345690
 H         0.659571         0.854658        -0.640522
 H        -1.712420         1.529713        -0.443847
 H        -2.208436         0.050035         0.272563
 H        -0.365984         3.183050         0.817237
 H        -0.028206         2.703366         2.455117
 H        -1.457219         2.157139         4.528586
 H        -3.072948         1.178123         4.568598
 H        -2.429129        -0.079987         2.495235
 H         0.382229         0.806423         3.009515
 H        -0.139562        -0.834068         2.269848
