19
Iteration:   920
 O         0.832328         0.564846         0.290267
 C        -0.202632         1.046007         1.024087
 C        -1.749222         1.051074         0.446089
 C        -1.978100         1.702283         1.824882
 C        -0.610476         2.419610         1.625924
 O        -2.961607         2.323778         2.777660
 C        -2.263918         1.527478         3.791731
 C        -1.677879         0.585013         2.761553
 C        -0.178729         0.294173         2.413431
 H         0.778153         0.870509        -0.612785
 H        -1.759980         1.644137        -0.490940
 H        -2.087394         0.001701         0.332515
 H        -0.926384         3.237387         0.859140
 H        -0.011701         2.947219         2.522908
 H        -1.576445         2.230290         4.169345
 H        -2.887961         1.060694         4.524275
 H        -2.250820        -0.338202         2.609501
 H         0.671420         0.628331         3.030003
 H        -0.010927        -0.790753         2.128440
