19
Iteration:  1058charge 0 multiplicity 1
 O         0.811958         0.696024         0.192409
 C        -0.239302         0.989900         0.989552
 C        -1.796022         0.947405         0.451137
 C        -1.977744         1.658991         1.854934
 C        -0.600278         2.392065         1.651821
 O        -2.966459         2.298928         2.678237
 C        -2.286085         1.612825         3.898426
 C        -1.611069         0.625863         2.878367
 C        -0.187363         0.299734         2.304468
 H         1.674481         0.585916         0.619281
 H        -1.825625         1.576970        -0.472894
 H        -2.281232        -0.059760         0.386288
 H        -0.869310         3.235654         0.885538
 H         0.159034         2.722203         2.382997
 H        -1.510783         2.340925         4.396642
 H        -3.119080         1.149621         4.549506
 H        -2.192506        -0.368395         2.784222
 H         0.788398         0.665011         2.782501
 H        -0.045267        -0.866633         2.209558
