19
Iteration:  1989charge 0 multiplicity 1
 O         0.873656         0.964005         0.127767
 C        -0.173335         1.075917         0.988120
 C        -1.862704         0.926013         0.561910
 C        -1.948203         1.551431         1.900539
 C        -0.621058         2.403724         1.596873
 O        -2.953108         2.197916         2.597469
 C        -2.235504         1.711101         3.775864
 C        -1.639408         0.496249         2.924179
 C        -0.195111         0.188717         2.491541
 H         0.846027         0.144410        -0.375270
 H        -1.960007         1.501296        -0.332973
 H        -2.150095        -0.092417         0.473720
 H        -1.015401         3.159360         0.822873
 H         0.029977         2.801860         2.457411
 H        -1.597908         2.481618         4.280713
 H        -2.923247         1.332613         4.627968
 H        -2.309848        -0.390984         3.133335
 H         0.717664         0.342576         3.034220
 H        -0.318921        -0.880192         2.203577
