19
Iteration:  4153charge 0 multiplicity 1
 O         0.856857         0.646216         0.159674
 C        -0.257060         0.976925         1.046862
 C        -1.677690         0.846957         0.562061
 C        -1.969927         1.642105         1.835502
 C        -0.709635         2.467324         1.490726
 O        -2.964834         2.253383         2.707760
 C        -2.305127         1.607517         3.858081
 C        -1.596092         0.670635         2.896988
 C        -0.176777         0.349108         2.438620
 H         0.996111         1.414924        -0.481643
 H        -1.728578         1.568507        -0.201263
 H        -2.130475        -0.110285         0.230763
 H        -0.895752         3.093897         0.594497
 H        -0.140311         2.912456         2.315943
 H        -1.629198         2.345038         4.381629
 H        -3.085900         1.103314         4.377233
 H        -2.077120        -0.276737         2.852727
 H         0.762039         0.742640         2.968430
 H        -0.097398        -0.701307         2.343102
