19
Iteration:  1675charge 0 multiplicity 1
 O         0.955917         0.996252         0.157349
 C        -0.205863         0.949757         1.026253
 C        -1.909160         0.806822         0.414767
 C        -1.914808         1.577922         1.877066
 C        -0.673943         2.383468         1.476650
 O        -2.936467         2.335679         2.716807
 C        -2.281887         1.648043         3.862945
 C        -1.635248         0.577490         2.974694
 C        -0.177807         0.160873         2.457147
 H         1.119621         0.120747        -0.295370
 H        -2.185287         1.676455        -0.298092
 H        -2.399708        -0.230496         0.153804
 H        -0.978056         3.146684         0.710265
 H        -0.076862         2.892847         2.261797
 H        -1.433633         2.331675         4.309806
 H        -3.100692         1.446458         4.600064
 H        -2.324785        -0.323238         2.813563
 H         0.590969         0.603243         3.076852
 H         0.007112        -0.998413         2.410524
