19
Iteration:  4112
 O         0.866774         0.795505         0.157338
 C        -0.229603         0.955169         1.037675
 C        -1.792409         0.848716         0.644434
 C        -1.936566         1.650204         1.886524
 C        -0.609180         2.369406         1.565419
 O        -3.019885         2.220114         2.605316
 C        -2.306088         1.662506         3.784086
 C        -1.556936         0.656423         2.939247
 C        -0.123323         0.282699         2.402366
 H         0.574344         1.185893        -0.727015
 H        -2.022768         1.317154        -0.260750
 H        -2.331062        -0.159930         0.540372
 H        -0.536715         3.220613         0.856352
 H        -0.021058         2.715822         2.336961
 H        -1.624085         2.503603         4.017778
 H        -3.131964         1.245989         4.559662
 H        -2.304097        -0.112503         2.653983
 H         0.678054         0.748802         3.077796
 H        -0.237648        -0.800601         2.429526
