19
Iteration:  3508
 O         0.839812         0.689146         0.220971
 C        -0.276209         0.970866         1.024008
 C        -1.805391         0.940975         0.619167
 C        -1.925164         1.684876         1.867000
 C        -0.561182         2.559653         1.559476
 O        -3.036332         2.145360         2.656048
 C        -2.313496         1.723616         3.801294
 C        -1.568762         0.559457         2.856990
 C        -0.083530         0.186272         2.405243
 H         0.857737         1.221280        -0.632330
 H        -1.967961         1.433776        -0.408196
 H        -2.247605         0.031950         0.400378
 H        -0.879611         3.114288         0.712674
 H        -0.136538         3.124000         2.409451
 H        -1.718393         2.518220         4.236096
 H        -3.094793         1.325379         4.539152
 H        -2.179539        -0.320696         2.692040
 H         0.733402         0.857339         2.837355
 H         0.122600        -0.956102         2.390961
