19
Iteration:  2063charge 0 multiplicity 1
 O         0.849459         0.764760         0.124117
 C        -0.237540         1.038372         1.042597
 C        -1.738671         1.043853         0.505771
 C        -1.978122         1.615144         1.884714
 C        -0.726580         2.470612         1.571883
 O        -2.993869         2.199951         2.697229
 C        -2.260624         1.590931         3.786399
 C        -1.519270         0.551094         2.890992
 C        -0.153324         0.253316         2.419194
 H         1.127798        -0.190265         0.307145
 H        -1.970536         1.669959        -0.394025
 H        -2.484477         0.174682         0.370432
 H        -0.980821         3.247054         0.799689
 H        -0.055183         2.981707         2.252053
 H        -1.600110         2.275716         4.273054
 H        -2.979258         1.258103         4.531833
 H        -2.241342        -0.271755         2.825466
 H         0.652606         0.669278         3.185534
 H         0.151497        -0.788346         2.286985
