19
Iteration:  3372charge 0 multiplicity 1
 O         0.813513         0.788735         0.216961
 C        -0.297145         0.999090         1.112036
 C        -1.725223         0.837113         0.558050
 C        -1.961697         1.629982         1.842791
 C        -0.637696         2.464454         1.512361
 O        -2.933062         2.206799         2.628444
 C        -2.263916         1.666870         3.828027
 C        -1.567205         0.589152         2.887849
 C        -0.184723         0.207971         2.427682
 H         0.741208         1.437665        -0.452498
 H        -1.842250         1.562594        -0.276272
 H        -2.498506        -0.061423         0.239997
 H        -0.851849         3.300656         0.770570
 H         0.171104         2.741125         2.196815
 H        -1.499353         2.436225         4.179884
 H        -2.932347         1.441983         4.635063
 H        -2.311452        -0.223341         2.732151
 H         0.602270         0.713755         2.926406
 H        -0.073572        -0.802258         2.302861
