19
Iteration:  2086
 O         0.785627         0.867691         0.167184
 C        -0.315977         0.985332         1.015266
 C        -1.738647         0.957493         0.431827
 C        -2.002490         1.614268         1.812344
 C        -0.500837         2.356224         1.633734
 O        -3.010462         2.129012         2.667141
 C        -2.297396         1.653421         3.973456
 C        -1.561443         0.671372         2.880474
 C        -0.147071         0.312162         2.312210
 H         1.125401        -0.031003         0.150440
 H        -2.035846         1.482979        -0.486624
 H        -2.135528        -0.098222         0.294559
 H        -0.418003         3.266593         0.972942
 H        -0.074680         2.667969         2.619093
 H        -1.858636         2.518023         4.328605
 H        -2.897218         1.243199         4.828654
 H        -2.249494        -0.181160         3.034907
 H         0.850207         0.603276         2.839355
 H        -0.008419        -0.797841         2.153567
