19
Iteration:  4858
 O         0.817302         0.842871         0.096547
 C        -0.202816         1.018259         1.154475
 C        -1.796338         0.888203         0.493834
 C        -1.985913         1.669093         1.789059
 C        -0.622676         2.407765         1.541365
 O        -3.051289         2.144586         2.709015
 C        -2.238610         1.677092         3.807565
 C        -1.570041         0.610513         2.840248
 C        -0.118589         0.295415         2.520994
 H         0.770658        -0.132369         0.176854
 H        -1.948527         1.237581        -0.559387
 H        -2.278608        -0.064471         0.403782
 H        -0.635861         3.144420         0.578901
 H        -0.249452         2.894522         2.490749
 H        -1.393216         2.409488         4.071547
 H        -2.789114         1.534026         4.702141
 H        -2.183736        -0.344669         2.847110
 H         0.716618         0.664756         3.180540
 H         0.090143        -0.714160         2.248461
