19
Iteration:  4703charge 0 multiplicity 1
 O         0.870492         0.833763         0.147298
 C        -0.211040         0.980430         1.054064
 C        -1.767838         0.752634         0.511937
 C        -2.016433         1.635994         1.833855
 C        -0.688647         2.448102         1.502231
 O        -2.948376         2.285958         2.679554
 C        -2.183061         1.596263         3.840866
 C        -1.619198         0.614488         2.871118
 C        -0.237812         0.248597         2.509674
 H         0.931243         1.782115        -0.219871
 H        -1.718157         1.278430        -0.451108
 H        -2.077916        -0.265183         0.615039
 H        -0.940606         3.093964         0.593572
 H        -0.011148         2.943450         2.228208
 H        -1.516239         2.457683         4.437457
 H        -2.807623         1.180878         4.566952
 H        -2.341612        -0.223380         2.736295
 H         0.560767         0.564037         3.188524
 H        -0.204984        -0.828688         2.391239
