19
Iteration:     1
 O         0.815050         0.726340         0.188912
 C        -0.218370         0.973881         1.084795
 C        -1.665443         1.149229         0.450803
 C        -1.886838         1.764311         1.845721
 C        -0.460630         2.358675         1.756755
 O        -2.895558         2.360848         2.667541
 C        -2.382662         1.554250         3.788678
 C        -1.760515         0.564645         2.766354
 C        -0.369084         0.039332         2.341787
 H         1.648795         0.760116         0.670660
 H        -1.610074         1.844747        -0.388766
 H        -2.239981         0.257416         0.190678
 H        -0.396899         3.185298         1.046959
 H         0.078525         2.589497         2.679544
 H        -1.672227         2.132333         4.390969
 H        -3.195286         1.183743         4.418128
 H        -2.533231        -0.169920         2.525126
 H         0.447021         0.217912         3.050257
 H        -0.378747        -1.024489         2.091651
