19
Iteration:  3060charge 0 multiplicity 1
 O         0.854580         0.802427         0.271822
 C        -0.304792         0.974106         1.019309
 C        -1.758332         0.919737         0.454274
 C        -1.968991         1.654844         1.840801
 C        -0.623762         2.388635         1.485375
 O        -3.100313         2.163712         2.705533
 C        -2.162417         1.714062         3.850936
 C        -1.589485         0.619839         2.890646
 C        -0.130663         0.204473         2.427362
 H         1.028614         1.594201        -0.340636
 H        -1.707246         1.431053        -0.646187
 H        -2.273938        -0.015295         0.414259
 H        -0.909870         3.002536         0.623148
 H         0.176840         2.684274         2.210592
 H        -1.695128         2.618459         4.101337
 H        -2.662563         1.333172         4.784427
 H        -2.256044        -0.277627         2.913625
 H         0.669595         0.595452         3.034108
 H        -0.043667        -0.918605         2.450135
