19
Iteration:  3904charge 0 multiplicity 1
 O         0.841363         0.816134         0.199534
 C        -0.244552         0.992874         1.060458
 C        -1.784640         0.771854         0.504584
 C        -2.005581         1.622216         1.794060
 C        -0.668666         2.389148         1.578131
 O        -2.969420         2.297193         2.589948
 C        -2.171353         1.682094         3.815103
 C        -1.600635         0.639420         2.949687
 C        -0.168901         0.216767         2.450785
 H         1.059414         1.572317        -0.337601
 H        -1.915896         1.273512        -0.434857
 H        -2.371728        -0.203310         0.354350
 H        -0.723803         3.348145         0.879463
 H        -0.166579         2.644672         2.513598
 H        -1.564658         2.378738         4.377931
 H        -2.939821         1.113278         4.472442
 H        -2.121101        -0.280241         3.143411
 H         0.628628         0.558918         3.095237
 H        -0.164027        -0.772456         2.269188
