19
Iteration:  4260
 O         0.790018         0.792807         0.219097
 C        -0.232835         0.917094         1.104821
 C        -1.841895         0.899649         0.531243
 C        -1.877597         1.674816         1.821797
 C        -0.638176         2.424198         1.506066
 O        -3.041289         2.200106         2.624462
 C        -2.264090         1.681729         3.772144
 C        -1.549824         0.593942         2.918994
 C        -0.099723         0.220032         2.477357
 H         0.704249         1.520090        -0.499615
 H        -1.857901         1.532660        -0.399947
 H        -2.471768         0.033914         0.561825
 H        -0.530226         3.117037         0.701536
 H        -0.060040         2.786011         2.448409
 H        -1.542232         2.372948         4.132587
 H        -2.832478         1.477454         4.567745
 H        -2.165775        -0.276733         2.720491
 H         0.692387         0.643802         3.060150
 H         0.069518        -0.819095         2.424501
