19
Iteration:  3549
 O         0.868603         0.783439         0.187960
 C        -0.236883         0.986526         1.054372
 C        -1.667783         0.843502         0.444128
 C        -1.980244         1.634854         1.824732
 C        -0.705217         2.388245         1.493363
 O        -3.008878         2.280587         2.726907
 C        -2.248000         1.720395         3.879384
 C        -1.610089         0.575709         2.901364
 C        -0.164077         0.177995         2.426807
 H         0.779733         1.489942        -0.410372
 H        -1.777769         1.441465        -0.543206
 H        -2.195629        -0.159933         0.417414
 H        -0.826297         3.206089         0.791655
 H        -0.164368         2.821180         2.428842
 H        -1.539502         2.552377         4.240760
 H        -2.989286         1.238225         4.610837
 H        -2.397123        -0.191194         2.976511
 H         0.541133         0.642804         3.123342
 H         0.101736        -0.777946         2.240199
