19
Iteration:   237
 O         0.867793         0.660421         0.232788
 C        -0.219944         1.052765         1.096373
 C        -1.674716         1.042926         0.504571
 C        -1.902421         1.713353         1.820197
 C        -0.473905         2.391442         1.751290
 O        -3.022349         2.305126         2.622697
 C        -2.266968         1.589681         3.720346
 C        -1.727359         0.611331         2.842662
 C        -0.336325         0.105588         2.379153
 H         0.913861         1.351214        -0.493078
 H        -1.713358         1.793982        -0.332841
 H        -2.036300        -0.011392         0.470322
 H        -0.608858         3.323943         1.051837
 H         0.165455         2.709397         2.536730
 H        -1.613206         2.280312         4.338069
 H        -3.041462         1.259494         4.425818
 H        -2.422444        -0.204309         2.655306
 H         0.609021         0.035758         3.025956
 H        -0.620356        -0.855427         2.062737
