19
Iteration:  2845
 O         0.823884         0.641535         0.211579
 C        -0.287603         1.065987         1.013232
 C        -1.713659         0.910325         0.554223
 C        -1.924932         1.652838         1.832446
 C        -0.651183         2.528315         1.516566
 O        -2.996647         2.131347         2.671568
 C        -2.216468         1.626961         3.879150
 C        -1.627738         0.621869         2.880132
 C        -0.184169         0.342523         2.416501
 H         0.708615         1.086048        -0.630267
 H        -1.782136         1.435292        -0.441866
 H        -2.126257        -0.220477         0.463599
 H        -0.888735         3.173668         0.691173
 H         0.008051         2.890099         2.290964
 H        -1.543701         2.394659         4.312939
 H        -2.834143         1.275410         4.717838
 H        -2.307920        -0.214885         2.820068
 H         0.611768         0.689580         3.127832
 H         0.124839        -0.648679         2.215714
