19
Iteration:  2686charge 0 multiplicity 1
 O         0.572675         0.824092         0.087510
 C        -0.269684         0.963194         1.129508
 C        -1.653328         0.706332         0.581212
 C        -1.981005         1.688166         1.761472
 C        -0.623384         2.414635         1.574356
 O        -2.994719         2.254109         2.639703
 C        -2.176248         1.612803         3.813738
 C        -1.541416         0.696062         2.823719
 C        -0.095927         0.329468         2.464769
 H         1.445697         0.658078         0.399291
 H        -1.649431         1.162604        -0.348654
 H        -1.957070        -0.296513         0.600511
 H        -0.535431         3.233244         0.844024
 H        -0.278467         2.866077         2.563132
 H        -1.714321         2.424695         4.446652
 H        -2.959150         1.184196         4.543725
 H        -2.181173        -0.187781         2.670492
 H         0.683927         0.833927         3.074875
 H        -0.082181        -0.834747         2.575614
