19
Iteration:   373
 O         0.812425         0.774454         0.210820
 C        -0.189474         1.001859         1.137855
 C        -1.712340         1.089439         0.479294
 C        -1.965699         1.608758         1.836860
 C        -0.549173         2.375060         1.722161
 O        -2.992543         2.324588         2.541745
 C        -2.274314         1.656192         3.847177
 C        -1.658362         0.597589         2.882310
 C        -0.208007         0.092304         2.284002
 H         0.969095        -0.155909         0.273353
 H        -1.739322         1.943367        -0.228434
 H        -2.177309         0.165075         0.158635
 H        -0.404530         3.062018         0.905416
 H        -0.143445         2.616126         2.832563
 H        -1.589179         2.451304         4.198340
 H        -3.095119         1.452835         4.595431
 H        -2.411398        -0.218478         2.802747
 H         0.588982         0.241159         3.059834
 H        -0.487186        -0.970136         1.882163
