19
Iteration:  4073
 O         0.880915         0.706083         0.265910
 C        -0.201990         1.070390         1.074953
 C        -1.688868         0.880251         0.501371
 C        -2.018491         1.589902         1.829094
 C        -0.767464         2.376835         1.481144
 O        -3.009496         2.248877         2.692126
 C        -2.200338         1.687370         3.809038
 C        -1.571170         0.624863         2.915928
 C        -0.209713         0.241104         2.402483
 H         0.743902         1.227287        -0.564752
 H        -1.907853         1.641150        -0.384241
 H        -2.047869        -0.085104         0.168125
 H        -0.909309         3.160936         0.731766
 H        -0.277707         3.030191         2.391122
 H        -1.441322         2.437912         4.181330
 H        -2.648637         1.547952         4.728269
 H        -2.214095        -0.285529         2.963834
 H         0.652435         0.455639         3.000608
 H        -0.057493        -0.845996         2.095501
