19
Iteration:  1702charge 0 multiplicity 1
 O         0.778557         0.880451         0.146825
 C        -0.224711         0.968403         1.084715
 C        -1.694108         0.861649         0.490420
 C        -1.929904         1.642906         1.851251
 C        -0.637098         2.401930         1.623879
 O        -3.051522         2.229948         2.625149
 C        -2.192592         1.637610         3.859222
 C        -1.598260         0.631915         2.917639
 C        -0.169147         0.255433         2.350691
 H         0.856777        -0.031821        -0.213856
 H        -1.982666         1.413979        -0.335015
 H        -2.157382        -0.085674         0.403513
 H        -0.752447         3.244732         0.935685
 H        -0.060397         2.745509         2.497999
 H        -1.576229         2.371565         4.361801
 H        -3.004421         1.275836         4.489527
 H        -2.234472        -0.221374         2.898763
 H         0.634058         0.711825         2.974267
 H        -0.067674        -0.763035         2.300395
