19
Iteration:  1267charge 0 multiplicity 1
 O         0.721357         0.719008         0.139590
 C        -0.180616         1.005533         1.044260
 C        -1.755678         0.862083         0.504134
 C        -1.959648         1.784827         1.863400
 C        -0.511168         2.406786         1.473244
 O        -3.125776         2.175243         2.704979
 C        -2.212162         1.611006         3.879013
 C        -1.594428         0.622343         2.858166
 C        -0.164512         0.288195         2.425358
 H         1.616921         0.718232         0.599369
 H        -1.622016         1.495581        -0.381599
 H        -2.465164         0.035422         0.324241
 H        -0.626972         3.190837         0.655219
 H         0.093192         3.000622         2.173093
 H        -1.553987         2.339240         4.213514
 H        -2.904943         1.279278         4.640244
 H        -2.315588        -0.209154         2.848119
 H         0.527550         0.824401         3.096799
 H         0.187138        -0.737837         2.543706
