19
Iteration:  1998charge 0 multiplicity 1
 O         0.935193         0.981561         0.130510
 C        -0.236716         1.053043         1.009175
 C        -1.844411         0.879117         0.549200
 C        -1.950239         1.531400         1.860596
 C        -0.675007         2.377774         1.539825
 O        -2.930040         2.279774         2.620311
 C        -2.303065         1.666179         3.821888
 C        -1.591475         0.546178         2.980222
 C        -0.160488         0.138651         2.448723
 H         0.816792         0.155430        -0.364173
 H        -2.158142         1.616993        -0.196423
 H        -2.545375         0.092305         0.415052
 H        -0.865361         3.299881         0.922281
 H        -0.032584         2.742023         2.370915
 H        -1.695315         2.471911         4.161170
 H        -3.015010         1.304135         4.585689
 H        -2.157517        -0.386364         2.931220
 H         0.600310         0.318948         3.285083
 H         0.053192        -0.876918         2.158951
