19
Iteration:  2810
 O         0.906906         0.800453         0.155049
 C        -0.243109         0.896786         1.013270
 C        -1.905891         0.863801         0.570858
 C        -1.938161         1.674162         1.850360
 C        -0.650258         2.334691         1.483167
 O        -3.002989         2.277469         2.635619
 C        -2.351541         1.648594         3.920536
 C        -1.501594         0.654159         2.911305
 C        -0.065150         0.284344         2.459086
 H         0.736475         1.413386        -0.576754
 H        -1.854443         1.505605        -0.370689
 H        -2.574464        -0.055011         0.458856
 H        -0.807285         3.152361         0.732369
 H        -0.039028         2.763799         2.291338
 H        -1.805183         2.413938         4.508349
 H        -3.153244         0.962868         4.455960
 H        -1.976463        -0.367161         2.915551
 H         0.817893         0.753507         2.959449
 H         0.004169        -0.850142         2.275309
