19
Iteration:  4077charge 0 multiplicity 1
 O         0.872009         0.719055         0.255090
 C        -0.195652         1.042237         1.111536
 C        -1.684384         0.893136         0.494526
 C        -2.053825         1.555655         1.845168
 C        -0.728232         2.411297         1.490434
 O        -3.000484         2.235717         2.704778
 C        -2.177985         1.705971         3.782516
 C        -1.591219         0.630309         2.915271
 C        -0.201934         0.242253         2.352655
 H         0.655216         1.218311        -0.580287
 H        -1.750773         1.593660        -0.272646
 H        -2.083875        -0.086916         0.220539
 H        -0.900670         3.080148         0.662942
 H        -0.307846         2.901001         2.237599
 H        -1.545944         2.566507         4.237304
 H        -2.781554         1.445140         4.736533
 H        -2.241992        -0.225635         2.905059
 H         0.597609         0.491155         3.142426
 H        -0.045359        -0.816835         2.254038
