19
Iteration:  4748
 O         0.847215         0.665480         0.188331
 C        -0.233952         1.031417         0.972449
 C        -1.780644         0.928291         0.469476
 C        -1.998441         1.549938         1.863757
 C        -0.679744         2.410284         1.632029
 O        -3.068355         2.121002         2.604418
 C        -2.214045         1.719933         3.855988
 C        -1.523241         0.729771         2.974676
 C        -0.150316         0.301791         2.381066
 H         1.398045         1.324846        -0.267529
 H        -1.941739         1.672829        -0.436429
 H        -2.154064        -0.075589         0.407105
 H        -0.948975         3.305246         0.946342
 H        -0.170497         2.629123         2.539974
 H        -1.589341         2.661615         4.338481
 H        -2.847583         1.415745         4.683148
 H        -2.020528        -0.254658         3.213903
 H         0.845193         0.611878         2.806424
 H        -0.134540        -0.723968         2.089997
