19
Iteration:  4270charge 0 multiplicity 1
 O         0.855069         0.723281         0.213597
 C        -0.258723         0.997734         1.087443
 C        -1.881995         0.941427         0.529798
 C        -1.955415         1.646352         1.789955
 C        -0.600046         2.387115         1.515393
 O        -2.971808         2.182444         2.696811
 C        -2.297254         1.676208         3.780986
 C        -1.576250         0.591470         2.883823
 C        -0.101218         0.301613         2.483932
 H         0.829433         1.466607        -0.505431
 H        -1.693272         1.469034        -0.479937
 H        -2.440630         0.068934         0.334389
 H        -0.842150         2.925501         0.695079
 H         0.071689         2.883281         2.283516
 H        -1.651953         2.462373         4.123984
 H        -2.948396         1.226914         4.494849
 H        -2.232901        -0.277785         2.939464
 H         0.677932         0.753291         3.045699
 H         0.087648        -0.760653         2.452950
