19
Iteration:  4786charge 0 multiplicity 1
 O         0.788896         0.846506         0.186389
 C        -0.245410         0.956673         1.052131
 C        -1.712924         0.833813         0.570558
 C        -1.886433         1.712668         1.824316
 C        -0.669742         2.411663         1.491351
 O        -2.981687         2.203383         2.626260
 C        -2.264661         1.609308         3.867624
 C        -1.597840         0.627821         2.902012
 C        -0.145742         0.261627         2.476596
 H         0.469993         1.118920        -0.646129
 H        -1.896832         1.167812        -0.426699
 H        -2.335438        -0.117998         0.650054
 H        -0.711903         2.947077         0.606976
 H        -0.076530         2.978313         2.224825
 H        -1.570498         2.352314         4.149706
 H        -2.921617         1.201266         4.720183
 H        -2.333639        -0.116763         2.644184
 H         0.614481         0.774003         3.071110
 H         0.061235        -0.846452         2.592527
