19
Iteration:  3877
 O         0.851894         0.806895         0.158825
 C        -0.230850         0.920432         1.048635
 C        -1.728880         0.859297         0.550651
 C        -1.874937         1.705910         1.890175
 C        -0.637733         2.373852         1.496672
 O        -3.027382         2.188992         2.616222
 C        -2.309906         1.743659         3.888439
 C        -1.647883         0.582545         2.952573
 C        -0.144146         0.229165         2.409895
 H         0.972393         1.521533        -0.421762
 H        -1.613311         1.491695        -0.415932
 H        -2.413582         0.042739         0.451269
 H        -0.906686         2.997020         0.736180
 H        -0.006824         2.889812         2.261253
 H        -1.505291         2.471527         4.071024
 H        -3.006587         1.431509         4.599835
 H        -2.342879        -0.312613         2.934616
 H         0.567354         0.744125         3.107310
 H        -0.105316        -0.976999         2.234785
