19
Iteration:   872
 O         0.858108         0.816650         0.141251
 C        -0.241660         0.905910         1.064537
 C        -1.686743         0.836846         0.536528
 C        -1.904800         1.761244         1.856374
 C        -0.507324         2.359100         1.604926
 O        -3.006319         2.314225         2.747925
 C        -2.348430         1.672984         3.793907
 C        -1.650918         0.654329         2.891208
 C        -0.305443         0.103361         2.322580
 H         1.091363         1.756235        -0.043934
 H        -1.737251         1.533800        -0.321870
 H        -2.306845        -0.089211         0.497432
 H        -0.344457         3.180613         0.589897
 H         0.100088         2.664347         2.441566
 H        -1.513836         2.186454         4.280467
 H        -3.114261         1.239047         4.455873
 H        -2.368193        -0.204930         2.701526
 H         0.548890         0.308882         3.005317
 H        -0.303367        -0.974732         2.130454
