19
Iteration:  3375charge 0 multiplicity 1
 O         0.815737         0.776231         0.224550
 C        -0.305118         1.020923         1.086574
 C        -1.750555         0.846069         0.534982
 C        -1.943153         1.628372         1.832771
 C        -0.660021         2.474583         1.534006
 O        -2.917399         2.186007         2.623801
 C        -2.253010         1.687609         3.828840
 C        -1.587511         0.582621         2.882224
 C        -0.171983         0.202474         2.428393
 H         0.743964         1.501997        -0.449101
 H        -1.812914         1.579263        -0.288520
 H        -2.384417        -0.037657         0.441628
 H        -0.859547         3.228894         0.821071
 H         0.145131         2.775657         2.206668
 H        -1.539575         2.342075         4.150057
 H        -2.953283         1.549686         4.669467
 H        -2.289983        -0.208516         2.753411
 H         0.660090         0.706085         3.014842
 H        -0.086014        -0.934171         2.377312
