19
Iteration:  1829charge 0 multiplicity 1
 O         0.883501         0.883833         0.164643
 C        -0.246721         0.994794         0.993093
 C        -1.783965         0.946610         0.460101
 C        -2.027354         1.634306         1.826865
 C        -0.666913         2.358219         1.608028
 O        -3.062416         2.166737         2.682734
 C        -2.172017         1.735783         3.857287
 C        -1.553878         0.642918         2.934342
 C        -0.153717         0.214712         2.416314
 H         0.982487         0.052510        -0.263135
 H        -1.865824         1.650096        -0.400695
 H        -2.076626        -0.180606         0.339913
 H        -0.697533         3.184754         0.903481
 H        -0.318452         2.447831         2.608439
 H        -1.529410         2.477163         4.281648
 H        -2.823643         1.346907         4.590303
 H        -2.248404        -0.244497         2.914484
 H         0.725219         0.259681         3.088689
 H        -0.093936        -0.901836         2.027614
