19
Iteration:  3047charge 0 multiplicity 1
 O         0.825091         0.792769         0.227005
 C        -0.203965         1.011094         1.104930
 C        -1.828457         0.882523         0.542427
 C        -1.952938         1.596594         1.824731
 C        -0.654997         2.418179         1.507689
 O        -2.967200         2.188722         2.657943
 C        -2.231865         1.690402         3.782980
 C        -1.562258         0.591671         2.895847
 C        -0.173341         0.223780         2.446029
 H         0.817764         1.537996        -0.352267
 H        -2.007232         1.596005        -0.395761
 H        -2.293625        -0.128107         0.377981
 H        -0.777454         3.175654         0.723904
 H        -0.208598         3.050275         2.281191
 H        -1.361913         2.276260         4.109068
 H        -2.979870         1.405785         4.554193
 H        -2.306283        -0.225519         2.785228
 H         0.534141         0.714993         3.040142
 H         0.091518        -0.867119         2.268180
