19
Iteration:  2461
 O         0.856932         0.889421         0.175014
 C        -0.223295         0.996904         1.056430
 C        -1.633700         0.901944         0.522700
 C        -1.927001         1.704443         1.898987
 C        -0.599070         2.457129         1.469325
 O        -3.026668         2.238494         2.676015
 C        -2.339150         1.648767         3.882096
 C        -1.591485         0.609579         3.038181
 C        -0.195239         0.076417         2.323374
 H         0.461276         0.394609        -0.587558
 H        -1.834009         1.514243        -0.452833
 H        -2.319430         0.038300         0.460924
 H        -0.773766         3.027852         0.561041
 H         0.026195         2.791011         2.221235
 H        -1.708015         2.517789         4.246694
 H        -3.092281         1.267412         4.629795
 H        -2.282262        -0.255268         2.874585
 H         0.677853         0.139439         2.929535
 H        -0.386874        -0.996287         2.016593
