19
Iteration:  1839charge 0 multiplicity 1
 O         0.852422         0.859620         0.169815
 C        -0.254378         1.031643         1.035149
 C        -1.836486         0.991556         0.453871
 C        -1.913627         1.574682         1.852515
 C        -0.682412         2.414702         1.684126
 O        -3.020594         2.145652         2.629839
 C        -2.201458         1.713152         3.759700
 C        -1.493524         0.600646         2.957673
 C        -0.159069         0.205067         2.425167
 H         0.733470        -0.026838        -0.214267
 H        -2.030960         1.586494        -0.477403
 H        -2.353706        -0.050255         0.252161
 H        -0.728134         3.252577         0.984538
 H        -0.228274         2.924081         2.507254
 H        -1.698895         2.574369         4.103681
 H        -2.755619         1.264354         4.568049
 H        -2.261125        -0.226808         3.073431
 H         0.795105         0.419939         2.916524
 H        -0.346505        -0.955802         2.274310
