19
Iteration:  2451charge 0 multiplicity 1
 O         0.872758         0.920472         0.137605
 C        -0.206828         0.937662         1.030688
 C        -1.648970         0.924030         0.373855
 C        -1.933377         1.696766         1.888575
 C        -0.640698         2.414558         1.467066
 O        -3.024959         2.208948         2.749258
 C        -2.336649         1.682761         3.955364
 C        -1.656307         0.645579         2.989718
 C        -0.202154         0.081174         2.411022
 H         0.873939         0.132205        -0.501758
 H        -1.444111         1.607014        -0.504609
 H        -2.144920         0.003524         0.068517
 H        -0.738106         3.120835         0.605492
 H         0.024028         3.047963         2.064635
 H        -1.642611         2.453712         4.405996
 H        -2.907739         1.258729         4.786183
 H        -2.408541        -0.115147         3.138590
 H         0.770727         0.059560         2.926764
 H        -0.509534        -1.002425         2.232751
