19
Iteration:  4441
 O         0.875466         0.744410         0.254776
 C        -0.246657         0.960622         1.062094
 C        -1.810725         0.826485         0.509269
 C        -1.994425         1.637398         1.810364
 C        -0.733835         2.437121         1.539255
 O        -2.879602         2.318632         2.673659
 C        -2.287979         1.573969         3.871826
 C        -1.582640         0.578127         2.856142
 C        -0.134751         0.333490         2.417048
 H         0.848707         1.272786        -0.500858
 H        -1.803962         1.382245        -0.514765
 H        -2.396089        -0.098758         0.201058
 H        -0.872639         3.239409         0.574504
 H        -0.039575         2.986570         2.196152
 H        -1.740643         2.114042         4.611036
 H        -3.064572         1.234221         4.511927
 H        -2.200677        -0.362009         2.751945
 H         0.542844         1.040341         2.950335
 H         0.227849        -0.768360         2.380600
