19
Iteration:  2633
 O         0.817896         0.671536         0.233517
 C        -0.301625         1.010400         1.027350
 C        -1.808418         0.847286         0.483940
 C        -1.972911         1.658821         1.842759
 C        -0.636191         2.440930         1.481918
 O        -3.007823         2.225216         2.701657
 C        -2.288872         1.651001         3.866790
 C        -1.451698         0.688105         2.956596
 C        -0.111640         0.317673         2.311882
 H         1.445306         1.353257         0.052771
 H        -2.161135         1.258054        -0.463653
 H        -2.143678        -0.146911         0.533839
 H        -0.907447         3.231696         0.780373
 H        -0.055654         2.796166         2.356062
 H        -2.080086         2.460670         4.462789
 H        -2.990183         1.012461         4.496874
 H        -2.109185        -0.233935         3.040043
 H         0.831746         0.570486         2.692783
 H         0.003271        -0.803561         2.232301
