19
Iteration:  2414
 O         0.829374         0.882134         0.248072
 C        -0.318445         1.006039         1.079824
 C        -1.909874         0.903055         0.552684
 C        -1.967691         1.668778         1.844771
 C        -0.600855         2.423578         1.699625
 O        -2.937155         2.303948         2.614720
 C        -2.132418         1.595505         3.757467
 C        -1.669638         0.481875         2.793301
 C        -0.146999         0.260941         2.347527
 H         1.313873         0.038289         0.509049
 H        -1.866049         1.238686        -0.529132
 H        -2.341641        -0.163609         0.543742
 H        -0.862725         3.183985         1.017345
 H        -0.017015         2.793678         2.511970
 H        -1.230615         2.191781         3.970224
 H        -2.873898         1.502847         4.621129
 H        -2.238259        -0.453156         2.531469
 H         0.711151         0.589866         2.901767
 H         0.014315        -0.746280         2.016716
