19
Iteration:   870
 O         0.852933         0.812580         0.131790
 C        -0.222325         0.902115         1.067338
 C        -1.677269         0.831467         0.547450
 C        -1.917852         1.765779         1.845035
 C        -0.511299         2.379789         1.610528
 O        -3.006127         2.320781         2.747666
 C        -2.353984         1.669187         3.807120
 C        -1.647840         0.654791         2.871381
 C        -0.311207         0.077468         2.322261
 H         1.107413         1.790818        -0.041031
 H        -1.711731         1.458065        -0.325639
 H        -2.249643        -0.067702         0.498819
 H        -0.373591         3.147556         0.677034
 H         0.022898         2.684251         2.453983
 H        -1.471443         2.269603         4.252754
 H        -3.117156         1.278233         4.536261
 H        -2.293302        -0.213122         2.737679
 H         0.500990         0.308109         3.039800
 H        -0.325416        -0.937758         2.048811
