19
Iteration:  1466
 O         0.772982         0.813612         0.101058
 C        -0.160045         1.011602         1.062136
 C        -1.683854         0.891746         0.530544
 C        -1.936864         1.574594         1.858302
 C        -0.661935         2.406207         1.572295
 O        -3.057202         2.295791         2.644679
 C        -2.306214         1.747082         3.891674
 C        -1.621238         0.610597         2.946700
 C        -0.100645         0.124146         2.330107
 H         1.374564         0.130849         0.309763
 H        -1.810749         1.505447        -0.372775
 H        -1.991055        -0.133427         0.323293
 H        -0.889930         3.200523         0.807660
 H        -0.137920         3.003531         2.448334
 H        -1.714708         2.660554         4.334512
 H        -2.919365         1.305538         4.686732
 H        -2.430637        -0.124738         2.998029
 H         0.740867         0.497197         2.900451
 H        -0.089666        -0.964492         2.127422
