19
Iteration:  3806charge 0 multiplicity 1
 O         0.873423         0.723754         0.184630
 C        -0.174467         1.046529         1.059209
 C        -1.785882         0.890169         0.480166
 C        -1.941647         1.632455         1.810385
 C        -0.595782         2.390920         1.485740
 O        -2.976685         2.204741         2.734104
 C        -2.306160         1.678176         3.838883
 C        -1.651540         0.589375         2.878504
 C        -0.177675         0.292985         2.521106
 H         0.645948         1.158236        -0.607080
 H        -1.890834         1.403680        -0.458246
 H        -2.457499        -0.046717         0.552438
 H        -0.838397         3.114757         0.600097
 H         0.007566         2.936902         2.189970
 H        -1.516668         2.376952         4.313945
 H        -3.086495         1.213015         4.538903
 H        -2.322501        -0.221531         2.634057
 H         0.545395         0.813985         3.134127
 H         0.107164        -0.639309         2.322467
