19
Iteration:  1150charge 0 multiplicity 1
 O         0.920570         0.738951         0.282959
 C        -0.259014         1.026550         0.998607
 C        -1.715273         0.915763         0.437029
 C        -2.026874         1.523802         1.869122
 C        -0.728463         2.452183         1.502158
 O        -2.899656         2.272463         2.715544
 C        -2.202318         1.703923         3.867334
 C        -1.653779         0.585237         2.922715
 C        -0.234933         0.230580         2.338132
 H         0.844768         0.588840        -0.669153
 H        -1.921908         1.747090        -0.232990
 H        -2.111639        -0.046922         0.081981
 H        -1.026484         3.186431         0.859882
 H        -0.257412         2.925325         2.358345
 H        -1.382499         2.473964         4.306987
 H        -2.953107         1.388590         4.538546
 H        -2.242270        -0.267509         3.164388
 H         0.620872         0.621868         2.919102
 H        -0.113468        -0.839994         2.282485
