19
Iteration:  3365charge 0 multiplicity 1
 O         0.809935         0.800784         0.213398
 C        -0.236960         0.951817         1.075430
 C        -1.748782         0.842382         0.562161
 C        -1.968070         1.636902         1.868290
 C        -0.586443         2.407844         1.478687
 O        -3.006701         2.262106         2.659876
 C        -2.245981         1.639838         3.825460
 C        -1.580085         0.617469         2.920188
 C        -0.203845         0.260588         2.417402
 H         0.707904         1.380699        -0.533967
 H        -1.798465         1.500584        -0.328112
 H        -2.214545         0.024491         0.167177
 H        -0.720050         3.091713         0.692418
 H        -0.000796         2.828861         2.325116
 H        -1.654941         2.391061         4.207911
 H        -2.944982         1.137560         4.549887
 H        -2.229263        -0.223588         2.812222
 H         0.708836         0.657455         3.016740
 H         0.073643        -0.860686         2.155586
