19
Iteration:  4335
 O         0.854669         0.821637         0.205938
 C        -0.258476         0.941788         1.057661
 C        -1.833057         0.842188         0.531909
 C        -1.933458         1.711387         1.832026
 C        -0.615115         2.430979         1.474747
 O        -2.959695         2.229309         2.636992
 C        -2.260038         1.605794         3.816203
 C        -1.607493         0.615662         2.939504
 C        -0.165418         0.240109         2.516604
 H         0.694076         1.120035        -0.656056
 H        -1.707793         1.475462        -0.399657
 H        -2.367965        -0.071678         0.413716
 H        -0.817589         3.043178         0.693481
 H        -0.115182         2.936266         2.296593
 H        -1.549379         2.421578         4.166189
 H        -2.967710         1.150845         4.679628
 H        -2.305492        -0.190773         2.745662
 H         0.707633         0.661471         2.983361
 H         0.126557        -0.798848         2.373031
