19
Iteration:  3178charge 0 multiplicity 1
 O         0.747890         0.662006         0.284945
 C        -0.265056         1.069696         1.085483
 C        -1.805611         0.940699         0.484200
 C        -1.909190         1.652425         1.828215
 C        -0.663366         2.559001         1.516147
 O        -2.936940         2.166129         2.603049
 C        -2.309272         1.594010         3.839407
 C        -1.496325         0.568918         2.962728
 C        -0.142857         0.299146         2.409803
 H         0.805082         1.219018        -0.459563
 H        -1.868705         1.380644        -0.507411
 H        -2.057407        -0.055465         0.374367
 H        -0.682226         3.155355         0.623436
 H        -0.133662         3.022832         2.300856
 H        -1.632972         2.378405         4.279493
 H        -3.006322         1.147819         4.641835
 H        -2.100299        -0.311913         2.887630
 H         0.873055         0.639099         2.764897
 H        -0.135348        -0.818506         2.183565
