19
Iteration:  3760charge 0 multiplicity 1
 O         0.889118         0.745333         0.163009
 C        -0.203912         1.035626         1.028339
 C        -1.810492         0.834520         0.562094
 C        -1.977563         1.585895         1.826633
 C        -0.656116         2.450596         1.537564
 O        -2.958974         2.215483         2.642926
 C        -2.311237         1.761461         3.858499
 C        -1.592752         0.595868         2.966516
 C        -0.162320         0.192063         2.382868
 H         0.923548         1.549090        -0.327931
 H        -1.792208         1.522371        -0.381259
 H        -2.159174        -0.167881         0.367205
 H        -0.777520         3.281935         0.740251
 H        -0.110769         2.948046         2.409155
 H        -1.713681         2.634705         4.201505
 H        -3.171719         1.419721         4.586261
 H        -2.171893        -0.328213         3.079718
 H         0.669527         0.379808         3.090658
 H        -0.064661        -0.873103         2.190794
