19
Iteration:  2417charge 0 multiplicity 1
 O         0.841250         0.885588         0.236689
 C        -0.290597         0.995064         1.051669
 C        -1.895132         0.892863         0.543505
 C        -1.984606         1.667401         1.848012
 C        -0.607757         2.421193         1.696094
 O        -2.941439         2.295861         2.633933
 C        -2.135059         1.602364         3.759599
 C        -1.703010         0.506802         2.804774
 C        -0.156156         0.270571         2.349965
 H         1.310040         0.045344         0.449659
 H        -1.785438         1.296614        -0.534429
 H        -2.294401        -0.117642         0.575951
 H        -0.802350         3.203665         0.998377
 H        -0.047513         2.641305         2.548605
 H        -1.229115         2.225937         3.956998
 H        -2.818381         1.416221         4.625591
 H        -2.257367        -0.419819         2.661895
 H         0.701443         0.589146         2.885378
 H         0.026264        -0.827623         2.059144
