19
Iteration:  1945charge 0 multiplicity 1
 O         0.911726         0.877127         0.136399
 C        -0.214042         0.997199         1.075721
 C        -1.826208         0.935337         0.439189
 C        -2.000276         1.651490         1.786238
 C        -0.627827         2.401458         1.595254
 O        -3.072832         2.182857         2.753564
 C        -2.225210         1.608032         3.818632
 C        -1.562728         0.690436         2.904711
 C        -0.163236         0.206637         2.403256
 H         1.063109        -0.080308         0.099186
 H        -1.927459         1.523488        -0.473920
 H        -2.250862        -0.039977         0.423789
 H        -0.761698         3.046607         0.641634
 H        -0.152026         2.907410         2.516225
 H        -1.514393         2.297858         4.381701
 H        -2.936286         1.265272         4.684395
 H        -2.150238        -0.236076         2.706132
 H         0.678730         0.590690         2.996070
 H        -0.099400        -0.894438         2.309794
