19
Iteration:   813
 O         0.896783         0.714979         0.224139
 C        -0.261131         0.931015         1.002679
 C        -1.846655         1.066655         0.388189
 C        -1.957111         1.710169         1.841281
 C        -0.547166         2.295612         1.610691
 O        -3.061092         2.244673         2.700581
 C        -2.226344         1.678378         3.849540
 C        -1.670044         0.630787         2.864774
 C        -0.194062         0.150185         2.397132
 H         1.593064         1.261754         0.484366
 H        -1.911180         1.796346        -0.377921
 H        -2.420799         0.226033         0.111890
 H        -0.490031         3.060240         0.817461
 H         0.196218         2.641730         2.424192
 H        -1.416051         2.320680         4.411296
 H        -2.972952         1.382092         4.616948
 H        -2.365759        -0.178590         2.858340
 H         0.584681         0.644390         3.001107
 H         0.191979        -0.850429         2.204405
