19
Iteration:   673charge 0 multiplicity 1
 O         0.838003         0.758648         0.174796
 C        -0.232951         0.957673         1.077763
 C        -1.700168         0.954786         0.404834
 C        -1.962403         1.644759         1.836872
 C        -0.636553         2.302570         1.627934
 O        -3.007590         2.395342         2.733586
 C        -2.255622         1.661926         3.811542
 C        -1.684444         0.618927         2.813970
 C        -0.225409         0.162692         2.401013
 H         1.675765         0.991064         0.565217
 H        -1.588541         1.483029        -0.551144
 H        -2.145579        -0.047048         0.228082
 H        -0.675045         3.176258         0.866675
 H        -0.061842         2.522079         2.476055
 H        -1.539504         2.322607         4.234378
 H        -2.866026         1.266867         4.600597
 H        -2.331630        -0.273933         2.794558
 H         0.576828         0.558265         3.111288
 H        -0.030586        -0.879484         2.251678
