19
Iteration:  1066charge 0 multiplicity 1
 O         0.823605         0.711695         0.097415
 C        -0.262990         1.009827         1.032948
 C        -1.747684         0.958642         0.457930
 C        -1.944311         1.691236         1.898903
 C        -0.674301         2.339929         1.640860
 O        -2.957300         2.313692         2.703827
 C        -2.332285         1.649850         3.824995
 C        -1.627461         0.578941         2.901979
 C        -0.135025         0.260290         2.332054
 H         1.636215         0.317640         0.518292
 H        -1.858687         1.612568        -0.390170
 H        -2.164395        -0.022376         0.284130
 H        -0.759166         3.151196         0.935237
 H         0.103253         2.698924         2.495376
 H        -1.732179         2.350466         4.352356
 H        -3.064067         1.244477         4.559961
 H        -2.238961        -0.330503         2.860120
 H         0.686992         0.730658         2.933208
 H         0.150956        -0.801000         2.350347
