19
Iteration:   799
 O         0.895545         0.696868         0.146748
 C        -0.199184         0.941417         1.052474
 C        -1.828504         1.012602         0.491581
 C        -1.930297         1.748914         1.790199
 C        -0.533613         2.427829         1.546079
 O        -3.003892         2.236312         2.725752
 C        -2.283837         1.584627         3.863935
 C        -1.612125         0.681123         2.844298
 C        -0.292691         0.155806         2.418103
 H         1.647839         1.244195         0.548367
 H        -1.823493         1.619603        -0.467090
 H        -2.446774         0.073743         0.380689
 H        -0.515705         3.116563         0.834757
 H        -0.104606         2.754531         2.523790
 H        -1.707760         2.464521         4.299747
 H        -2.903779         1.018652         4.600542
 H        -2.353279        -0.127062         2.591244
 H         0.552253         0.474853         3.045626
 H        -0.509095        -0.981860         2.399121
