19
Iteration:  1155
 O         0.897082         0.740652         0.315895
 C        -0.295757         0.983773         1.016570
 C        -1.690924         0.895324         0.392874
 C        -2.031050         1.552097         1.885129
 C        -0.703021         2.485800         1.495458
 O        -2.922735         2.281175         2.718614
 C        -2.168802         1.695716         3.861639
 C        -1.683871         0.576428         2.927751
 C        -0.197787         0.226379         2.326956
 H         0.669949         0.795403        -0.636095
 H        -1.920705         1.696306        -0.326601
 H        -2.056971        -0.101467         0.121257
 H        -1.045011         3.381508         0.794228
 H        -0.168762         3.022511         2.328309
 H        -1.426168         2.358107         4.073324
 H        -2.893318         1.447562         4.707315
 H        -2.314216        -0.353697         3.060109
 H         0.629516         0.483804         3.005405
 H         0.132550        -0.849283         2.253008
