19
Iteration:   713charge 0 multiplicity 1
 O         0.767544         0.696999         0.187587
 C        -0.218504         1.091656         1.080663
 C        -1.680160         0.993958         0.529423
 C        -1.933480         1.765714         1.894360
 C        -0.530681         2.429758         1.551734
 O        -3.044803         2.189595         2.659267
 C        -2.284263         1.674576         3.827674
 C        -1.611697         0.558275         2.850262
 C        -0.241972         0.137307         2.345751
 H         1.585108         0.541144         0.736235
 H        -1.688037         1.620732        -0.346603
 H        -2.211564         0.072879         0.421080
 H        -0.796476         3.072729         0.752635
 H         0.194615         3.022678         2.335685
 H        -1.641306         2.555747         4.151090
 H        -2.947674         1.266914         4.615630
 H        -2.391695        -0.143669         2.594863
 H         0.529134         0.128499         3.072584
 H        -0.254149        -0.919239         1.958463
