19
Iteration:  2556charge 0 multiplicity 1
 O         0.811296         0.858640         0.144361
 C        -0.247933         0.989168         1.050755
 C        -1.809183         0.815196         0.594447
 C        -1.979372         1.661171         1.842603
 C        -0.640185         2.364598         1.645178
 O        -3.023108         2.284095         2.665184
 C        -2.274314         1.710739         3.817877
 C        -1.505446         0.677877         2.845263
 C        -0.132600         0.199323         2.305338
 H         1.564375         0.278670         0.528281
 H        -2.030181         1.194590        -0.424008
 H        -2.280709        -0.139279         0.773364
 H        -0.823316         2.983803         0.799223
 H         0.047685         2.603634         2.448807
 H        -1.650678         2.390822         4.305732
 H        -2.979823         1.184076         4.515569
 H        -2.178578        -0.239726         2.834952
 H         0.742405         0.553144         2.782131
 H        -0.020186        -0.878655         2.062496
