19
Iteration:   338charge 0 multiplicity 1
 O         0.898210         0.785664         0.199411
 C        -0.223143         0.979574         1.093207
 C        -1.764635         1.026214         0.408479
 C        -1.915963         1.730542         1.800010
 C        -0.509933         2.363058         1.606519
 O        -2.903014         2.259503         2.681795
 C        -2.301558         1.621349         3.867737
 C        -1.789062         0.629953         2.791941
 C        -0.327805         0.132874         2.407729
 H         1.650325         0.381507         0.611789
 H        -1.996600         1.756903        -0.366052
 H        -2.392504         0.143555         0.165835
 H        -0.239604         3.116951         0.873252
 H        -0.217872         2.669300         2.700639
 H        -1.487967         2.285186         4.312897
 H        -2.949690         1.290638         4.695462
 H        -2.498903        -0.177295         2.597513
 H         0.479276         0.196971         3.213737
 H        -0.344998        -0.964281         2.183496
