19
Iteration:  3482
 O         0.832801         0.700551         0.172545
 C        -0.241543         1.038473         1.040594
 C        -1.695638         0.896445         0.539526
 C        -1.988215         1.647913         1.813265
 C        -0.576401         2.420685         1.504163
 O        -3.018730         2.222621         2.666249
 C        -2.236713         1.611822         3.912364
 C        -1.600570         0.656376         2.876851
 C        -0.190212         0.298352         2.471541
 H         0.658383         1.074894        -0.768738
 H        -1.678511         1.473857        -0.375047
 H        -2.144387        -0.121715         0.201400
 H        -0.908121         3.242456         0.841295
 H        -0.246560         2.847418         2.468520
 H        -1.804590         2.517461         4.520986
 H        -2.990258         0.974550         4.415066
 H        -2.217779        -0.264884         2.852141
 H         0.679261         0.576107         2.966063
 H        -0.079170        -0.715019         2.363247
