19
Iteration:   964
 O         0.869490         0.758074         0.182636
 C        -0.188945         1.035191         1.073632
 C        -1.774211         1.009467         0.558811
 C        -1.957569         1.679826         1.893914
 C        -0.562572         2.351133         1.581521
 O        -3.012718         2.309142         2.656309
 C        -2.327915         1.633999         3.805922
 C        -1.578639         0.609868         2.901371
 C        -0.191700         0.065277         2.373396
 H         0.677233         1.221410        -0.630850
 H        -1.880392         1.679916        -0.324073
 H        -2.422868         0.126015         0.445487
 H        -0.665599         3.036805         0.658291
 H         0.223563         2.745683         2.421598
 H        -1.649515         2.242576         4.305802
 H        -3.178400         1.356483         4.360304
 H        -2.238031        -0.197386         2.650482
 H         0.654764         0.351924         3.008606
 H        -0.307571        -1.036649         2.226279
