19
Iteration:  1697
 O         0.825489         0.896866         0.145261
 C        -0.234529         0.993102         1.024868
 C        -1.695147         0.893767         0.507371
 C        -1.990148         1.614030         1.854907
 C        -0.654550         2.350034         1.598993
 O        -2.994060         2.222195         2.636491
 C        -2.202611         1.678176         3.873156
 C        -1.624052         0.612676         2.904734
 C        -0.182060         0.274435         2.382719
 H         0.849600         0.016288        -0.223559
 H        -1.935383         1.479734        -0.465572
 H        -2.234022        -0.120257         0.634518
 H        -0.720851         3.214692         0.888519
 H        -0.072464         2.656664         2.488404
 H        -1.594442         2.443591         4.476866
 H        -3.039608         1.243002         4.445546
 H        -2.208099        -0.365575         2.938211
 H         0.634879         0.653125         2.983111
 H        -0.045728        -0.892310         2.362034
