19
Iteration:  3758charge 0 multiplicity 1
 O         0.884256         0.744351         0.169713
 C        -0.204566         1.046225         1.008938
 C        -1.807866         0.823723         0.551480
 C        -1.977163         1.593593         1.814180
 C        -0.647152         2.443213         1.532013
 O        -2.970579         2.213315         2.641963
 C        -2.304318         1.756610         3.873383
 C        -1.597001         0.595253         2.986156
 C        -0.177067         0.199923         2.392292
 H         0.958599         1.600660        -0.377154
 H        -1.779996         1.601403        -0.342580
 H        -2.154184        -0.151141         0.354714
 H        -0.734310         3.233392         0.736818
 H        -0.123832         2.991472         2.444570
 H        -1.707886         2.602886         4.162400
 H        -3.137900         1.487212         4.606570
 H        -2.204559        -0.342938         3.044505
 H         0.728248         0.355450         3.096700
 H         0.057509        -0.991873         2.187175
