19
Iteration:  2555
 O         0.815707         0.851462         0.141707
 C        -0.246831         0.986939         1.053254
 C        -1.807682         0.813682         0.600174
 C        -1.984748         1.666554         1.840270
 C        -0.641121         2.376231         1.640267
 O        -3.024488         2.285868         2.669534
 C        -2.279583         1.700283         3.816127
 C        -1.506047         0.675458         2.841847
 C        -0.127754         0.196205         2.302750
 H         1.553729         0.313045         0.577637
 H        -2.058479         1.182969        -0.364191
 H        -2.274318        -0.130524         0.795337
 H        -0.822750         3.004924         0.787216
 H         0.082437         2.622070         2.456233
 H        -1.653048         2.392898         4.267137
 H        -2.972946         1.191499         4.514425
 H        -2.194414        -0.203701         2.821817
 H         0.784756         0.548207         2.791748
 H        -0.045703        -0.872081         2.032970
