19
Iteration:  1855
 O         0.765916         0.858972         0.171891
 C        -0.240857         1.053944         1.087853
 C        -1.758790         0.972097         0.583120
 C        -1.970253         1.589397         1.890502
 C        -0.565911         2.443308         1.564664
 O        -3.004227         2.107441         2.575831
 C        -2.283773         1.711797         3.857189
 C        -1.579057         0.563475         2.911820
 C        -0.129761         0.196603         2.346358
 H         0.718007         0.016649        -0.229510
 H        -1.769331         1.708350        -0.204555
 H        -2.263465         0.080943         0.374252
 H        -0.815694         3.217392         0.782919
 H         0.119004         2.846445         2.397280
 H        -1.431503         2.411384         4.190266
 H        -3.095957         1.547711         4.618095
 H        -2.287959        -0.248153         2.855193
 H         0.702241         0.574937         3.045499
 H         0.213789        -0.766870         2.109656
