19
Iteration:  1050charge 0 multiplicity 1
 O         0.824694         0.687321         0.218198
 C        -0.289611         1.025399         0.980831
 C        -1.792961         0.948935         0.494062
 C        -1.979025         1.630838         1.815776
 C        -0.530241         2.470034         1.558740
 O        -2.971317         2.265816         2.679740
 C        -2.232847         1.572764         3.896090
 C        -1.574586         0.645037         2.853264
 C        -0.229546         0.236653         2.359064
 H         1.443595         0.911381         0.897613
 H        -1.956703         1.506360        -0.463127
 H        -2.378727         0.004539         0.368040
 H        -0.667682         3.309830         0.816885
 H        -0.096422         2.799301         2.441101
 H        -1.567477         2.283849         4.491703
 H        -2.965403         1.193939         4.607621
 H        -2.300696        -0.187136         2.798836
 H         0.619840         0.587177         2.925516
 H        -0.300036        -0.798269         2.050824
