19
Iteration:  4277
 O         0.877521         0.680248         0.218997
 C        -0.218823         1.014431         1.041144
 C        -1.847850         0.929965         0.484806
 C        -2.045655         1.629315         1.847915
 C        -0.583901         2.376282         1.518176
 O        -2.964716         2.200019         2.675009
 C        -2.255081         1.634554         3.840811
 C        -1.589225         0.636795         2.874909
 C        -0.143587         0.337017         2.476415
 H         0.981469         1.372111        -0.510866
 H        -1.909668         1.569311        -0.437748
 H        -2.334470        -0.034851         0.245297
 H        -0.935946         3.102403         0.685647
 H         0.010731         2.975419         2.137234
 H        -1.682618         2.411311         4.460147
 H        -3.089096         1.165647         4.620775
 H        -2.227876        -0.285418         2.899177
 H         0.617801         0.935553         3.037338
 H         0.115647        -0.785815         2.354845
