19
Iteration:  3850
 O         0.811058         0.672244         0.246533
 C        -0.203440         1.073124         1.057194
 C        -1.809446         0.878148         0.486754
 C        -1.963252         1.656059         1.818736
 C        -0.581949         2.422088         1.581719
 O        -3.013496         2.181871         2.703532
 C        -2.327450         1.680705         3.812127
 C        -1.539649         0.682614         2.845180
 C        -0.133303         0.282446         2.387478
 H         0.954785         1.055032        -0.568750
 H        -1.972342         1.362389        -0.436226
 H        -1.965298        -0.305682         0.506282
 H        -0.757036         3.202580         0.689635
 H        -0.214409         2.910569         2.470511
 H        -1.585271         2.503673         4.187017
 H        -2.939115         1.049234         4.613787
 H        -2.149394        -0.222098         2.910367
 H         0.655879         0.609713         3.047743
 H        -0.149568        -0.716713         2.313517
