19
Iteration:  1243charge 0 multiplicity 1
 O         0.660163         0.728342        -0.005992
 C        -0.161635         1.029426         1.034325
 C        -1.699584         0.902737         0.529131
 C        -1.932028         1.702099         1.782366
 C        -0.668037         2.410396         1.635013
 O        -2.952812         2.210643         2.621050
 C        -2.301509         1.631092         3.817513
 C        -1.573132         0.655818         2.939532
 C        -0.134072         0.266131         2.533973
 H         1.516108         0.494407         0.459932
 H        -1.938643         1.251706        -0.491468
 H        -2.075930        -0.111648         0.716366
 H        -0.707229         3.376172         0.956164
 H        -0.279582         2.861718         2.551686
 H        -1.610320         2.292326         4.323107
 H        -3.140288         1.264562         4.526869
 H        -2.285752        -0.219466         2.900872
 H         0.723562         0.667748         3.126245
 H         0.053773        -0.852671         2.613547
