19
Iteration:  1835charge 0 multiplicity 1
 O         0.865757         0.864216         0.168070
 C        -0.260954         1.013946         1.008845
 C        -1.831362         0.981826         0.440483
 C        -1.939995         1.598174         1.856133
 C        -0.686462         2.378063         1.649703
 O        -3.045790         2.156279         2.648450
 C        -2.181498         1.725150         3.775826
 C        -1.502298         0.601201         2.955076
 C        -0.152650         0.216172         2.438050
 H         0.867279        -0.008734        -0.265533
 H        -1.997223         1.572686        -0.468178
 H        -2.166307        -0.008467         0.301961
 H        -0.664835         3.259135         0.981125
 H        -0.361500         2.791311         2.669017
 H        -1.616565         2.598783         4.213222
 H        -2.790231         1.205262         4.603905
 H        -2.290340        -0.156283         3.029130
 H         0.774985         0.276200         3.008435
 H        -0.271645        -0.807849         2.172802
