19
Iteration:  2200charge 0 multiplicity 1
 O         0.733044         0.821799         0.104028
 C        -0.320206         1.075252         1.037763
 C        -1.701660         0.978116         0.535575
 C        -1.915187         1.715955         1.894990
 C        -0.601727         2.455120         1.533447
 O        -3.030267         2.141099         2.614598
 C        -2.267133         1.564690         3.879522
 C        -1.546069         0.597623         2.956594
 C        -0.122281         0.204192         2.416529
 H         1.193794         0.066794         0.437391
 H        -1.629838         1.443522        -0.438236
 H        -2.072043         0.048227         0.355553
 H        -0.798127         3.235934         0.774379
 H        -0.030240         3.001394         2.373916
 H        -1.706050         2.314563         4.383028
 H        -2.990280         1.222892         4.610975
 H        -2.258716        -0.228400         2.832225
 H         0.781884         0.490942         2.873203
 H        -0.111240        -0.870131         2.044640
