19
Iteration:   776charge 0 multiplicity 1
 O         0.688816         0.716219         0.139556
 C        -0.186292         1.062672         1.118927
 C        -1.625578         0.877119         0.541480
 C        -1.846873         1.766309         1.838128
 C        -0.563495         2.468190         1.578057
 O        -2.946139         2.378760         2.672483
 C        -2.361407         1.541194         3.834118
 C        -1.660651         0.517706         2.890061
 C        -0.246219         0.145337         2.351235
 H         1.565122         1.019544         0.422557
 H        -1.784767         1.518785        -0.401706
 H        -2.017542        -0.201080         0.443514
 H        -0.731267         3.024540         0.713833
 H        -0.009895         2.983620         2.350677
 H        -1.692129         2.292380         4.354372
 H        -3.240778         1.245114         4.464365
 H        -2.445200        -0.256484         2.581019
 H         0.466265         0.481404         3.143854
 H        -0.170377        -0.947448         1.912195
