19
Iteration:   652
 O         0.837240         0.827514         0.149071
 C        -0.290235         0.924893         1.034106
 C        -1.804730         0.939076         0.517321
 C        -1.915636         1.729600         1.868550
 C        -0.451256         2.410742         1.563978
 O        -2.883664         2.258718         2.601451
 C        -2.302464         1.625765         3.829671
 C        -1.696901         0.527864         2.865418
 C        -0.329992         0.163767         2.504213
 H         1.524258         1.305301         0.641031
 H        -1.860997         1.568410        -0.418322
 H        -2.443728         0.018141         0.341765
 H        -0.293127         3.028647         0.599040
 H         0.055265         2.786129         2.306875
 H        -1.583984         2.290975         4.314932
 H        -3.090386         1.424194         4.556994
 H        -2.518389        -0.212118         2.692204
 H         0.512615         0.653490         3.143212
 H        -0.126588        -0.886876         2.411023
