19
Iteration:  1363
 O         0.744140         0.760426         0.072461
 C        -0.241164         1.004914         1.035627
 C        -1.746911         0.925575         0.519125
 C        -1.935421         1.637993         1.831825
 C        -0.553677         2.390092         1.588525
 O        -3.072454         2.215331         2.645539
 C        -2.288161         1.695005         3.784559
 C        -1.528058         0.626147         2.972327
 C        -0.165512         0.176698         2.484870
 H         1.611524         1.121063         0.328371
 H        -1.860516         1.692222        -0.271790
 H        -2.249389        -0.032370         0.286065
 H        -0.689525         3.302193         0.889968
 H         0.115227         2.805607         2.372432
 H        -1.457805         2.471727         4.077764
 H        -3.192710         1.495598         4.570164
 H        -2.260079        -0.235567         2.908774
 H         0.695729         0.448280         3.176268
 H        -0.022836        -0.944166         2.366586
