19
Iteration:   462charge 0 multiplicity 1
 O         0.851251         0.590473         0.269903
 C        -0.187197         1.012127         1.077185
 C        -1.697531         1.023006         0.459341
 C        -1.912592         1.697968         1.844847
 C        -0.553153         2.466626         1.596656
 O        -2.980259         2.329240         2.687051
 C        -2.367666         1.573447         3.847129
 C        -1.677626         0.555524         2.847298
 C        -0.241596         0.254593         2.360785
 H         1.071294         1.131216        -0.491575
 H        -1.681055         1.654403        -0.423261
 H        -2.303349         0.148705         0.391632
 H        -0.726429         3.159791         0.821865
 H         0.141330         2.747824         2.369621
 H        -1.669963         2.198932         4.418126
 H        -3.163151         1.138491         4.474252
 H        -2.361989        -0.239459         2.547383
 H         0.554379         0.370881         3.075011
 H        -0.208584        -0.808355         1.916540
