19
Iteration:   921
 O         0.831918         0.563129         0.291382
 C        -0.213910         1.049901         1.027644
 C        -1.736445         1.044692         0.443448
 C        -1.981094         1.710244         1.821486
 C        -0.607432         2.425946         1.620147
 O        -2.967551         2.322004         2.776303
 C        -2.266315         1.523420         3.802110
 C        -1.669980         0.588382         2.752530
 C        -0.185574         0.292607         2.407562
 H         0.770930         0.862639        -0.646073
 H        -1.763362         1.629165        -0.481969
 H        -2.063414         0.014366         0.352794
 H        -0.890032         3.199595         0.920017
 H        -0.014652         2.940033         2.503282
 H        -1.535160         2.217431         4.189522
 H        -2.879568         1.062194         4.558422
 H        -2.242794        -0.321788         2.629016
 H         0.657158         0.609188         3.049235
 H        -0.002734        -0.779920         2.154162
