19
Iteration:   209
 O         0.988917         0.787743         0.348827
 C        -0.256527         0.970633         1.064686
 C        -1.740622         1.065702         0.331085
 C        -1.968565         1.657028         1.794904
 C        -0.553031         2.315899         1.684797
 O        -2.884058         2.345070         2.726663
 C        -2.339281         1.752133         3.899481
 C        -1.736207         0.536066         2.753235
 C        -0.292045         0.031306         2.304394
 H         0.647434         0.739078        -0.624395
 H        -1.611004         1.815004        -0.396163
 H        -2.179971         0.101498         0.276762
 H        -0.734472         2.949480         0.905285
 H         0.169370         2.771754         2.493888
 H        -1.835971         2.445589         4.600794
 H        -3.226082         1.309273         4.400192
 H        -2.477324        -0.284562         2.839426
 H         0.432926         0.402076         3.012106
 H        -0.278560        -1.096401         2.101229
