19
Iteration:  1156
 O         0.892588         0.740634         0.318400
 C        -0.299958         0.981021         1.018943
 C        -1.689035         0.891771         0.388532
 C        -2.029263         1.560862         1.883118
 C        -0.699026         2.488804         1.498739
 O        -2.929796         2.283092         2.719041
 C        -2.166779         1.691684         3.859819
 C        -1.683749         0.571820         2.929245
 C        -0.193291         0.225042         2.329250
 H         0.645213         0.837408        -0.595019
 H        -1.914725         1.683145        -0.362621
 H        -2.057259        -0.119100         0.128036
 H        -1.045859         3.393141         0.767618
 H        -0.153527         3.016229         2.312247
 H        -1.397653         2.371799         4.057381
 H        -2.865145         1.461248         4.733100
 H        -2.331116        -0.364866         3.025338
 H         0.636638         0.488665         3.022976
 H         0.153244        -0.863271         2.229552
