19
Iteration:  2288
 O         0.924749         0.723380         0.166743
 C        -0.226990         1.011120         0.907843
 C        -1.735589         0.843619         0.511493
 C        -1.988052         1.654560         1.835334
 C        -0.623165         2.434951         1.630972
 O        -3.112862         2.236364         2.756162
 C        -2.144162         1.631240         3.892969
 C        -1.609489         0.695874         2.851373
 C        -0.269412         0.223294         2.328957
 H         1.441885         1.497601         0.060707
 H        -2.023872         1.364666        -0.399536
 H        -2.082511        -0.124316         0.466836
 H        -0.804401         3.328239         0.920632
 H        -0.273226         2.951912         2.638374
 H        -1.512643         2.234316         4.488711
 H        -2.783980         1.093659         4.527413
 H        -2.281122        -0.145708         2.738509
 H         0.573359         0.625552         2.874624
 H        -0.145426        -0.902729         2.209166
