19
Iteration:  4194charge 0 multiplicity 1
 O         0.886349         0.769626         0.330625
 C        -0.266811         0.971630         1.043784
 C        -1.830271         0.880853         0.511660
 C        -1.984393         1.656504         1.815425
 C        -0.655496         2.372735         1.462298
 O        -2.984857         2.195231         2.659049
 C        -2.161315         1.665852         3.794491
 C        -1.540641         0.614015         2.900105
 C        -0.212393         0.295361         2.402948
 H         0.753145         1.287328        -0.425060
 H        -1.904060         1.579844        -0.398435
 H        -2.485274         0.046407         0.544105
 H        -0.898343         3.048790         0.652365
 H        -0.071311         2.874327         2.399951
 H        -1.560801         2.405213         4.264311
 H        -2.810656         1.333735         4.544736
 H        -2.282838        -0.190835         2.918736
 H         0.568945         0.655757         3.002924
 H         0.025868        -0.749238         2.298366
