19
Iteration:  4821charge 0 multiplicity 1
 O         0.974087         0.793094         0.205783
 C        -0.235309         1.003070         0.997846
 C        -1.819376         0.813279         0.479868
 C        -1.928098         1.675709         1.871248
 C        -0.738756         2.403447         1.464645
 O        -2.985645         2.291048         2.724744
 C        -2.356885         1.604341         3.918479
 C        -1.565799         0.623802         2.924553
 C        -0.103915         0.299198         2.361676
 H         0.794913         0.244866        -0.520151
 H        -2.035312         1.426572        -0.381566
 H        -2.273447        -0.170997         0.663121
 H        -0.940907         3.099991         0.599549
 H        -0.160763         2.951818         2.335498
 H        -1.801054         2.321035         4.396107
 H        -3.117356         1.208640         4.628450
 H        -2.138899        -0.258972         2.804165
 H         0.704797         0.784123         2.854038
 H         0.076228        -0.802800         2.317739
