19
Iteration:  3576
 O         0.896139         0.817597         0.267057
 C        -0.276957         1.016610         1.070190
 C        -1.812585         0.828482         0.536902
 C        -1.959354         1.640689         1.813836
 C        -0.627495         2.413042         1.495409
 O        -2.951471         2.257949         2.682191
 C        -2.201277         1.670520         3.779528
 C        -1.583783         0.560444         2.877361
 C        -0.224742         0.216585         2.438861
 H         0.733330         1.483429        -0.363567
 H        -2.218875         1.322779        -0.441602
 H        -2.190779        -0.176471         0.560342
 H        -0.806855         3.174651         0.706187
 H        -0.232438         2.913742         2.351939
 H        -1.468586         2.403032         4.042374
 H        -2.924527         1.266098         4.486433
 H        -2.334046        -0.219143         2.974494
 H         0.621819         0.670323         3.050918
 H        -0.114154        -0.986439         2.106474
