19
Iteration:  2316charge 0 multiplicity 1
 O         0.805958         0.798857         0.231046
 C        -0.255182         0.994635         1.045139
 C        -1.808571         0.981019         0.445757
 C        -1.950821         1.614355         1.846367
 C        -0.585631         2.494913         1.561123
 O        -2.991146         2.208625         2.671447
 C        -2.237802         1.653018         3.826921
 C        -1.574298         0.531788         2.899801
 C        -0.145855         0.134529         2.467110
 H         0.709465         1.310942        -0.595323
 H        -1.821238         1.669168        -0.440701
 H        -2.454259         0.069126         0.135617
 H        -0.800911         3.153151         0.762384
 H        -0.103279         3.040555         2.303125
 H        -1.432420         2.289642         4.301740
 H        -3.014269         1.435449         4.651771
 H        -2.193513        -0.391747         2.765395
 H         0.638791         0.609741         3.051544
 H         0.072125        -0.943385         2.325756
