19
Iteration:  2577charge 0 multiplicity 1
 O         0.809783         0.970912         0.096807
 C        -0.279885         0.935023         1.037318
 C        -1.744135         0.860794         0.436556
 C        -1.992241         1.534873         1.813162
 C        -0.639989         2.373434         1.545009
 O        -2.910466         2.230422         2.642539
 C        -2.238480         1.732244         3.859163
 C        -1.606429         0.595689         3.012745
 C        -0.170067         0.224074         2.531431
 H         0.816611         0.057829        -0.246172
 H        -1.900766         1.652662        -0.260724
 H        -2.222802        -0.034879         0.123206
 H        -0.713225         3.119687         0.754707
 H        -0.052889         2.573095         2.473517
 H        -1.594686         2.499440         4.110931
 H        -2.960735         1.486917         4.682102
 H        -2.379069        -0.201966         3.071234
 H         0.700094         0.651325         3.025135
 H        -0.086105        -0.873472         2.411084
