19
Iteration:  1866charge 0 multiplicity 1
 O         0.784285         0.880315         0.112863
 C        -0.242875         1.017993         1.031589
 C        -1.705591         0.939613         0.552902
 C        -1.897214         1.658711         1.907470
 C        -0.539605         2.412046         1.529470
 O        -3.073869         2.170668         2.666120
 C        -2.310297         1.659163         3.856224
 C        -1.629349         0.518495         2.908114
 C        -0.126261         0.258575         2.413151
 H         0.750322        -0.053247        -0.210057
 H        -1.857626         1.498105        -0.354865
 H        -2.028848        -0.045753         0.423140
 H        -0.578833         3.147583         0.663298
 H         0.048912         2.812127         2.434519
 H        -1.675797         2.558109         4.220100
 H        -2.967504         1.299394         4.723899
 H        -2.344790        -0.273301         2.736875
 H         0.695778         0.662882         3.108469
 H        -0.058647        -0.772782         2.204963
