19
Iteration:  2449charge 0 multiplicity 1
 O         0.880466         0.923481         0.129873
 C        -0.211889         0.931417         1.027735
 C        -1.661321         0.926646         0.361304
 C        -1.937585         1.680946         1.880959
 C        -0.633208         2.415763         1.479080
 O        -3.025445         2.206915         2.761927
 C        -2.320253         1.695844         3.961117
 C        -1.652382         0.658309         2.967171
 C        -0.214143         0.084800         2.430047
 H         0.927731         0.100858        -0.442993
 H        -1.424425         1.666838        -0.518298
 H        -2.093618        -0.054782         0.037178
 H        -0.768449         3.045381         0.631801
 H        -0.049843         3.001580         2.071900
 H        -1.630563         2.458407         4.440607
 H        -2.956616         1.251246         4.808251
 H        -2.412702        -0.155962         3.077906
 H         0.711864         0.092541         2.906159
 H        -0.475788        -0.989027         2.237430
