19
Iteration:  4078charge 0 multiplicity 1
 O         0.869027         0.725121         0.249668
 C        -0.196192         1.032775         1.118756
 C        -1.684936         0.896049         0.492936
 C        -2.060329         1.547983         1.846828
 C        -0.717753         2.420928         1.494690
 O        -2.998560         2.231151         2.707694
 C        -2.170271         1.715726         3.781100
 C        -1.596900         0.630641         2.913821
 C        -0.197050         0.242563         2.343746
 H         0.647828         1.191733        -0.552863
 H        -1.707256         1.581916        -0.258891
 H        -2.101812        -0.108092         0.234788
 H        -0.905140         3.068201         0.621418
 H        -0.286517         2.889095         2.239739
 H        -1.580822         2.576903         4.224121
 H        -2.832662         1.400893         4.728116
 H        -2.261632        -0.220337         2.893564
 H         0.575354         0.508976         3.163807
 H        -0.052500        -0.815770         2.292213
