19
Iteration:  3212charge 0 multiplicity 1
 O         0.936930         0.782558         0.186298
 C        -0.243591         0.978604         1.020314
 C        -1.754522         0.857636         0.457907
 C        -2.017861         1.649952         1.817254
 C        -0.569200         2.349448         1.563990
 O        -3.013539         2.206545         2.762404
 C        -2.245945         1.694191         3.837598
 C        -1.679147         0.606367         2.913280
 C        -0.234248         0.298226         2.371309
 H         0.754837         1.457631        -0.478172
 H        -1.878907         1.328406        -0.547137
 H        -2.026172        -0.116741         0.571901
 H        -0.646981         2.977857         0.722319
 H        -0.074705         2.891667         2.334556
 H        -1.550400         2.523262         4.122787
 H        -2.799851         1.390399         4.835384
 H        -2.158466        -0.324690         2.918251
 H         0.502201         0.881110         2.988846
 H        -0.023978        -0.834022         2.376585
