19
Iteration:  1040
 O         0.849363         0.700977         0.228092
 C        -0.307520         1.060192         1.050223
 C        -1.801667         0.949373         0.505544
 C        -1.934278         1.754096         1.832072
 C        -0.583122         2.488272         1.451296
 O        -2.959751         2.199813         2.724950
 C        -2.202816         1.591952         3.834207
 C        -1.628441         0.630703         2.862330
 C        -0.277583         0.141280         2.377255
 H         1.631952         1.103208         0.646033
 H        -1.968720         1.665225        -0.323646
 H        -2.149367        -0.096547         0.432348
 H        -0.486402         3.244851         0.643013
 H        -0.126210         2.812011         2.371720
 H        -1.590180         2.395849         4.252893
 H        -2.826701         1.084158         4.520258
 H        -2.361392        -0.146916         2.739932
 H         0.519954         0.257969         3.074347
 H        -0.117444        -0.905176         2.238462
