19
Iteration:  3553charge 0 multiplicity 1
 O         0.863788         0.792397         0.197257
 C        -0.217250         0.981315         1.069309
 C        -1.661144         0.849398         0.467800
 C        -1.959848         1.647179         1.827811
 C        -0.743109         2.378790         1.485018
 O        -3.010704         2.291054         2.703257
 C        -2.223718         1.713283         3.894870
 C        -1.630484         0.574874         2.913295
 C        -0.163067         0.184481         2.417948
 H         0.816119         1.542427        -0.487822
 H        -1.799357         1.329160        -0.568137
 H        -2.250456        -0.041187         0.368817
 H        -0.879168         3.175611         0.741974
 H        -0.135833         2.654744         2.339927
 H        -1.566980         2.491383         4.232744
 H        -2.929225         1.254533         4.634530
 H        -2.381068        -0.238797         2.894360
 H         0.454498         0.688713         3.231580
 H         0.146581        -0.926894         2.097388
