19
Iteration:  2828
 O         0.821861         0.709701         0.251493
 C        -0.205876         1.030909         1.089460
 C        -1.948530         0.844749         0.536812
 C        -1.985829         1.710730         1.840975
 C        -0.597340         2.446530         1.548893
 O        -3.016666         2.192829         2.675531
 C        -2.284760         1.604720         3.751685
 C        -1.469169         0.661479         2.863920
 C        -0.029766         0.278519         2.377835
 H         0.795718         1.038397        -0.661146
 H        -2.204174         1.397866        -0.351501
 H        -2.355486        -0.055537         0.776714
 H        -0.594923         3.240842         0.749310
 H        -0.131748         2.821634         2.493066
 H        -1.730818         2.392126         4.321757
 H        -3.018772         1.204308         4.538170
 H        -2.235890        -0.137172         2.719988
 H         0.791452         0.802570         2.859431
 H        -0.001790        -0.862437         2.410854
