19
Iteration:  4934
 O         0.864805         0.900599         0.223208
 C        -0.256712         0.982554         1.066213
 C        -1.773969         0.746020         0.526542
 C        -1.990669         1.649062         1.809031
 C        -0.672764         2.449585         1.466943
 O        -2.956639         2.232247         2.694482
 C        -2.197173         1.583832         3.861050
 C        -1.623782         0.652257         2.873057
 C        -0.194742         0.329048         2.427191
 H         0.736616         0.079472        -0.262951
 H        -1.970060         1.146534        -0.518492
 H        -2.001676        -0.327375         0.582733
 H        -0.790516         3.162799         0.476475
 H         0.049112         2.820586         2.303316
 H        -1.546833         2.354498         4.245124
 H        -2.856887         1.365048         4.613021
 H        -2.236036        -0.260873         2.944696
 H         0.650037         0.796552         2.987935
 H        -0.108013        -0.742754         2.389278
