19
Iteration:  1547charge 0 multiplicity 1
 O         0.872714         0.880539         0.146478
 C        -0.189485         1.038258         1.065311
 C        -1.702906         0.749185         0.463726
 C        -1.983296         1.618957         1.857472
 C        -0.723606         2.437210         1.512427
 O        -2.896767         2.328058         2.714323
 C        -2.269637         1.635999         3.955776
 C        -1.640840         0.593968         2.880377
 C        -0.230292         0.210230         2.413982
 H         0.670296         0.071392        -0.315440
 H        -1.769362         1.394391        -0.420780
 H        -2.127405        -0.265420         0.407380
 H        -0.781668         3.030482         0.457512
 H         0.076756         3.087522         2.006119
 H        -1.706337         2.293055         4.553427
 H        -3.201256         1.314260         4.419323
 H        -2.387992        -0.200238         2.621734
 H         0.510697         0.644065         3.108106
 H        -0.073429        -0.883954         2.408226
