19
Iteration:  2062charge 0 multiplicity 1
 O         0.853447         0.764615         0.119961
 C        -0.232616         1.029767         1.046972
 C        -1.735314         1.049724         0.514379
 C        -1.981608         1.620747         1.880141
 C        -0.728350         2.479279         1.570419
 O        -2.986967         2.200912         2.696879
 C        -2.265722         1.585059         3.791011
 C        -1.527732         0.542765         2.878656
 C        -0.149090         0.251858         2.422892
 H         1.140814        -0.194011         0.290513
 H        -1.994501         1.668745        -0.409036
 H        -2.498626         0.153980         0.426041
 H        -1.005056         3.214809         0.785777
 H        -0.098573         3.003482         2.242380
 H        -1.594046         2.308456         4.278574
 H        -2.950207         1.269931         4.546389
 H        -2.253435        -0.259990         2.833868
 H         0.636835         0.679610         3.206027
 H         0.139177        -0.782695         2.274358
