19
Iteration:  4801
 O         0.893946         0.879388         0.189767
 C        -0.246867         0.985361         1.106710
 C        -1.898265         0.751220         0.589948
 C        -2.002520         1.670430         1.813130
 C        -0.537617         2.408986         1.401140
 O        -2.995687         2.237416         2.704688
 C        -2.261816         1.581778         3.834728
 C        -1.564019         0.676834         2.840510
 C        -0.178326         0.287302         2.499547
 H         0.527952         0.768074        -0.703587
 H        -1.910822         1.390645        -0.281707
 H        -2.166934        -0.253254         0.636390
 H        -0.568841         3.215344         0.517900
 H         0.136695         2.901821         2.240653
 H        -1.682744         2.290640         4.441735
 H        -3.011857         1.068683         4.300112
 H        -2.118613        -0.260864         2.895317
 H         0.638924         0.637513         3.118347
 H        -0.003610        -0.746676         2.301231
