19
Iteration:  1192
 O         0.879872         0.773166         0.115180
 C        -0.226696         0.906507         1.051240
 C        -1.862117         0.814405         0.553643
 C        -1.962256         1.684587         1.802649
 C        -0.591434         2.474387         1.546787
 O        -2.997689         2.216102         2.662941
 C        -2.235412         1.679480         3.872866
 C        -1.576383         0.686159         2.857458
 C        -0.200263         0.182916         2.461957
 H         1.148914         1.655590         0.287244
 H        -2.062697         1.340524        -0.401424
 H        -2.327376        -0.202220         0.507242
 H        -0.687089         3.233182         0.723283
 H         0.037995         2.757457         2.397024
 H        -1.619077         2.540037         4.363757
 H        -2.740887         1.166255         4.648677
 H        -2.404590        -0.017941         2.727343
 H         0.565304         0.649794         3.115493
 H        -0.230675        -0.879101         2.218843
