19
Iteration:  3969charge 0 multiplicity 1
 O         0.860193         0.689619         0.251666
 C        -0.238168         0.987260         0.999527
 C        -1.782425         0.903339         0.547370
 C        -1.940079         1.696756         1.827692
 C        -0.647499         2.463975         1.558106
 O        -3.060263         2.194236         2.691616
 C        -2.278544         1.695504         3.805011
 C        -1.536757         0.609976         2.872163
 C        -0.107172         0.247460         2.413076
 H         0.763689         1.001900        -0.725863
 H        -1.883473         1.448625        -0.363829
 H        -2.308240        -0.090221         0.494041
 H        -0.565293         3.182696         0.675226
 H        -0.239473         2.827703         2.478389
 H        -1.740152         2.409749         4.241833
 H        -2.963310         1.103246         4.471951
 H        -2.312029        -0.123286         2.791896
 H         0.644764         0.845009         2.987815
 H         0.112324        -0.783771         2.387839
