19
Iteration:  1178charge 0 multiplicity 1
 O         0.827901         0.764444         0.235975
 C        -0.232600         0.993157         1.105630
 C        -1.768949         0.857618         0.554998
 C        -2.007530         1.713274         1.769298
 C        -0.640811         2.374891         1.527262
 O        -3.007607         2.209907         2.750035
 C        -2.099339         1.659073         3.771616
 C        -1.629280         0.660395         2.780999
 C        -0.246761         0.227623         2.419239
 H         1.140012         1.535125        -0.312758
 H        -1.799396         1.315556        -0.455356
 H        -2.261123        -0.125625         0.633410
 H        -0.591356         3.152955         0.632462
 H        -0.206882         2.923097         2.378153
 H        -1.375157         2.352195         4.038669
 H        -2.777062         1.314354         4.595359
 H        -2.320041        -0.232702         2.797347
 H         0.591422         0.443648         3.111178
 H        -0.087265        -0.884474         2.461563
