19
Iteration:  2796charge 0 multiplicity 1
 O         0.843703         0.808461         0.125864
 C        -0.253506         0.995887         0.977361
 C        -1.729890         0.826878         0.521771
 C        -1.927943         1.570283         1.891972
 C        -0.632175         2.371810         1.446135
 O        -2.910903         2.258227         2.701239
 C        -2.356927         1.655059         3.888792
 C        -1.606948         0.636553         3.001387
 C        -0.172071         0.263113         2.421890
 H         0.830433         1.613544        -0.486278
 H        -2.060888         1.418955        -0.340830
 H        -2.132895        -0.112578         0.335294
 H        -0.846160         2.978055         0.513368
 H         0.057434         2.900780         2.162505
 H        -1.812589         2.464041         4.497034
 H        -3.265368         1.246468         4.576995
 H        -2.397852        -0.165581         2.864135
 H         0.589168         0.796823         3.003966
 H         0.211771        -0.828664         2.651506
