19
Iteration:   633
 O         0.804008         0.714129         0.112744
 C        -0.144718         0.960027         1.091599
 C        -1.704688         0.972986         0.571367
 C        -1.906743         1.723619         1.830739
 C        -0.559078         2.397988         1.583880
 O        -2.991005         2.346954         2.629760
 C        -2.380011         1.595368         3.803937
 C        -1.644443         0.652068         2.859563
 C        -0.214888         0.083628         2.453586
 H         1.574102         1.348524         0.253264
 H        -1.862601         1.589964        -0.367689
 H        -2.315190         0.007992         0.499865
 H        -0.886572         3.164077         0.822343
 H         0.098116         2.919285         2.387656
 H        -1.712070         2.261070         4.442241
 H        -3.126227         1.110033         4.502142
 H        -2.484531        -0.072173         2.644549
 H         0.651049         0.287743         3.133787
 H        -0.349681        -1.003380         2.261878
