19
Iteration:  4301charge 0 multiplicity 1
 O         0.895405         0.594310         0.260463
 C        -0.272592         1.054352         0.964876
 C        -1.687191         0.810479         0.513360
 C        -1.946874         1.726720         1.828600
 C        -0.718488         2.512839         1.481303
 O        -2.999526         2.287815         2.776809
 C        -2.308125         1.551829         3.854005
 C        -1.611641         0.619775         2.895866
 C        -0.149013         0.330455         2.374304
 H         1.089246         1.139650        -0.465501
 H        -1.747030         1.305214        -0.549234
 H        -2.068649        -0.156637         0.434458
 H        -0.924275         3.252495         0.735217
 H        -0.183750         3.048698         2.216139
 H        -1.656369         2.311429         4.401710
 H        -2.998588         1.097996         4.780993
 H        -2.302469        -0.239832         2.761233
 H         0.693544         0.835908         2.831521
 H         0.029805        -0.771766         2.119095
