19
Iteration:  4290charge 0 multiplicity 1
 O         0.900068         0.616727         0.241446
 C        -0.246945         1.028316         0.966215
 C        -1.727705         0.884353         0.476401
 C        -1.924165         1.606972         1.832058
 C        -0.688085         2.491778         1.450575
 O        -3.038929         2.297667         2.695412
 C        -2.258673         1.561419         3.953722
 C        -1.594670         0.620834         2.924326
 C        -0.189942         0.365636         2.387072
 H         1.063040         1.258505        -0.435723
 H        -2.113787         1.622811        -0.343088
 H        -2.103322        -0.083472         0.375529
 H        -0.755732         3.189522         0.673782
 H        -0.188380         2.717769         2.326694
 H        -1.533966         2.294358         4.402694
 H        -3.091676         1.040638         4.660420
 H        -2.224635        -0.283037         2.775675
 H         0.566768         0.847478         2.997105
 H         0.105059        -0.731890         2.496357
