19
Iteration:  2721
 O         0.855066         0.789412         0.040484
 C        -0.231367         1.000021         0.980532
 C        -1.747895         0.903785         0.610222
 C        -1.950611         1.542821         1.970033
 C        -0.598265         2.390547         1.454962
 O        -3.066914         2.139390         2.607236
 C        -2.242055         1.808874         3.903367
 C        -1.577841         0.610134         3.026572
 C        -0.223641         0.277642         2.381023
 H         1.658262         0.946264         0.505683
 H        -2.190628         1.594232        -0.168089
 H        -2.072919        -0.030552         0.202556
 H        -1.020001         3.050514         0.657911
 H        -0.022282         2.951051         2.221167
 H        -1.621696         2.665755         4.091537
 H        -2.995875         1.404306         4.689286
 H        -2.216086        -0.328335         3.133431
 H         0.696446         0.584350         2.861716
 H        -0.030516        -0.889960         2.315966
