19
Iteration:  1083charge 0 multiplicity 1
 O         0.733092         0.809084        -0.016852
 C        -0.174643         0.983281         1.021333
 C        -1.710830         0.946038         0.529981
 C        -1.947043         1.591736         1.804671
 C        -0.569571         2.460600         1.619351
 O        -2.957199         2.294457         2.640593
 C        -2.339721         1.636784         3.892858
 C        -1.629944         0.592292         2.913301
 C        -0.196940         0.192216         2.555599
 H         1.365194         0.036351         0.197913
 H        -1.661268         1.692372        -0.294626
 H        -2.204241        -0.025465         0.305568
 H        -0.705144         3.226325         0.821113
 H        -0.113063         2.915377         2.442262
 H        -1.550849         2.323657         4.410730
 H        -3.161914         1.233558         4.472794
 H        -2.276070        -0.295882         2.744214
 H         0.669381         0.531461         3.165280
 H        -0.018244        -0.904268         2.502829
