19
Iteration:  2659
 O         0.838659         0.719902         0.026471
 C        -0.212817         0.964645         1.014864
 C        -1.792427         0.896120         0.585365
 C        -1.905150         1.647014         1.903397
 C        -0.673817         2.411137         1.365622
 O        -2.948596         2.215956         2.701050
 C        -2.374598         1.615531         3.890754
 C        -1.613585         0.565428         2.931540
 C        -0.110039         0.374444         2.531921
 H         1.664514         1.083159         0.282693
 H        -2.014014         1.560186        -0.366921
 H        -2.360852        -0.113996         0.309546
 H        -1.048615         3.209280         0.708400
 H        -0.130860         2.986212         2.108872
 H        -1.689227         2.416118         4.378341
 H        -3.086612         1.531400         4.670962
 H        -2.279925        -0.290651         2.670878
 H         0.724891         0.830359         3.157424
 H         0.107574        -0.667369         2.554584
