19
Iteration:  3308
 O         0.765930         0.671595         0.254993
 C        -0.208339         1.073147         1.062278
 C        -1.786116         0.948297         0.474175
 C        -2.038878         1.652364         1.883942
 C        -0.591719         2.436460         1.510259
 O        -2.970296         2.209760         2.667583
 C        -2.303696         1.586705         3.832298
 C        -1.554752         0.618161         2.842168
 C        -0.107133         0.266272         2.483783
 H         0.646468         1.206119        -0.582099
 H        -1.764193         1.535692        -0.422279
 H        -2.093677        -0.106206         0.502886
 H        -0.806944         3.203996         0.702367
 H         0.044029         3.015004         2.171259
 H        -1.676126         2.345231         4.194537
 H        -2.964295         1.296582         4.612771
 H        -2.111890        -0.304974         2.704654
 H         0.817268         0.699481         2.986521
 H         0.201234        -0.757140         2.111384
