19
Iteration:  4590charge 0 multiplicity 1
 O         0.859878         0.789831         0.194473
 C        -0.207934         0.987475         1.014712
 C        -1.833323         0.877512         0.495509
 C        -1.953427         1.583977         1.870074
 C        -0.686414         2.420282         1.527032
 O        -2.960625         2.275038         2.657580
 C        -2.258104         1.654263         3.802255
 C        -1.574515         0.535676         2.973804
 C        -0.141738         0.253034         2.421217
 H         0.936884         1.379694        -0.543086
 H        -1.849051         1.532045        -0.286095
 H        -2.411460        -0.079451         0.589910
 H        -0.910498         3.183695         0.822566
 H        -0.180495         2.914604         2.422257
 H        -1.568451         2.440146         4.340910
 H        -3.161786         1.227122         4.387506
 H        -2.341959        -0.228055         2.856032
 H         0.593536         0.814059         2.952525
 H         0.312788        -0.755385         2.371838
