19
Iteration:  1325charge 0 multiplicity 1
 O         0.732600         0.871285         0.085658
 C        -0.238660         0.975517         1.057456
 C        -1.677520         0.734455         0.528237
 C        -2.005304         1.681717         1.831855
 C        -0.567338         2.373766         1.598164
 O        -2.949372         2.299017         2.689207
 C        -2.260292         1.706770         3.807499
 C        -1.646611         0.584080         2.887522
 C        -0.200468         0.200025         2.439594
 H         1.451246         1.405246         0.380286
 H        -1.832716         1.286283        -0.413030
 H        -2.079798        -0.271688         0.356590
 H        -0.590281         2.967166         0.756007
 H         0.005236         2.692119         2.479954
 H        -1.542289         2.381882         4.190279
 H        -2.917134         1.517187         4.553491
 H        -2.303515        -0.269164         2.790863
 H         0.550540         0.573132         3.127064
 H        -0.186260        -0.861309         2.373242
