19
Iteration:  3962charge 0 multiplicity 1
 O         0.888092         0.697088         0.256701
 C        -0.221521         0.965067         1.048299
 C        -1.783071         0.922158         0.508010
 C        -1.968792         1.723089         1.839545
 C        -0.679304         2.411807         1.530774
 O        -2.998711         2.122384         2.678594
 C        -2.289348         1.668016         3.831238
 C        -1.587151         0.719749         2.847119
 C        -0.140049         0.268875         2.414109
 H         0.672273         1.031035        -0.640233
 H        -1.963407         1.672010        -0.301490
 H        -2.299235        -0.108752         0.471441
 H        -0.743492         3.076128         0.618946
 H        -0.049972         2.975304         2.349878
 H        -1.489566         2.420696         4.347154
 H        -2.944731         1.268429         4.626701
 H        -2.262075        -0.188209         2.795684
 H         0.718563         0.625821         2.944879
 H         0.102072        -0.816462         2.399034
