19
Iteration:  3944charge 0 multiplicity 1
 O         0.889575         0.739986         0.274212
 C        -0.239118         1.041145         1.023384
 C        -1.779195         0.904311         0.465491
 C        -1.965321         1.615281         1.840188
 C        -0.594620         2.472377         1.392804
 O        -3.070496         2.205093         2.675302
 C        -2.199507         1.645044         3.892566
 C        -1.573455         0.584565         2.958957
 C        -0.231524         0.251772         2.462869
 H         0.808752         1.198734        -0.605510
 H        -1.635687         1.537233        -0.454915
 H        -2.241400        -0.004493         0.339754
 H        -0.798381         3.077323         0.570745
 H        -0.045483         2.951286         2.155732
 H        -1.575556         2.505021         4.220535
 H        -2.812091         1.226131         4.655452
 H        -2.346386        -0.189324         2.930596
 H         0.652515         0.520073         3.127609
 H        -0.180637        -0.902402         2.241738
