19
Iteration:  3329
 O         0.870534         0.679903         0.185429
 C        -0.241091         0.980329         0.974187
 C        -1.776739         0.828578         0.557807
 C        -1.885712         1.698253         1.877185
 C        -0.667031         2.524562         1.546346
 O        -2.974206         2.245119         2.676844
 C        -2.315236         1.585895         3.839664
 C        -1.590213         0.612443         2.914733
 C        -0.159854         0.306619         2.381233
 H         0.745170         1.083024        -0.652007
 H        -1.762533         1.549655        -0.250395
 H        -2.177304        -0.284101         0.455620
 H        -0.749398         3.417502         0.841730
 H        -0.244894         2.962828         2.461247
 H        -1.797290         2.295545         4.466385
 H        -2.993240         1.125817         4.491436
 H        -2.349648        -0.178472         2.815215
 H         0.548384         0.759455         3.091510
 H         0.013390        -0.757644         2.191663
