19
Iteration:  3720charge 0 multiplicity 1
 O         0.844878         0.734347         0.257295
 C        -0.223497         1.009893         1.112671
 C        -1.814993         0.821973         0.530396
 C        -2.033284         1.680376         1.720859
 C        -0.655211         2.430817         1.573170
 O        -2.989995         2.197004         2.696313
 C        -2.173288         1.679764         3.784450
 C        -1.577165         0.638652         2.853965
 C        -0.155917         0.254385         2.442753
 H         1.043110         1.363364        -0.504210
 H        -1.843734         1.349655        -0.365522
 H        -2.467258        -0.073952         0.317371
 H        -0.594813         3.113395         0.729917
 H        -0.384086         2.860445         2.453056
 H        -1.456947         2.423593         4.185976
 H        -2.794352         1.332401         4.562768
 H        -2.298162        -0.164699         2.776431
 H         0.613609         0.752638         2.989598
 H         0.043096        -0.835605         2.185803
