19
Iteration:  2271charge 0 multiplicity 1
 O         0.839519         0.779013         0.154978
 C        -0.243288         1.022499         1.102342
 C        -1.781364         0.889161         0.494915
 C        -1.971884         1.708052         1.826163
 C        -0.740636         2.539199         1.534744
 O        -2.948160         2.227204         2.723609
 C        -2.245722         1.595327         3.850469
 C        -1.585955         0.601409         2.881161
 C        -0.152011         0.123580         2.358749
 H         1.579157         1.309283         0.437385
 H        -1.891614         1.257958        -0.544350
 H        -2.253637        -0.198592         0.516120
 H        -0.738236         3.243800         0.738758
 H        -0.110031         2.894696         2.276673
 H        -1.626812         2.493689         4.229125
 H        -2.867357         1.283163         4.748535
 H        -2.298969        -0.258553         2.712832
 H         0.753248         0.241543         3.028471
 H        -0.221554        -0.897615         2.017668
