19
Iteration:  3058charge 0 multiplicity 1
 O         0.840475         0.803537         0.272436
 C        -0.286241         0.982333         1.034815
 C        -1.768206         0.929402         0.457390
 C        -1.961694         1.633920         1.850781
 C        -0.620084         2.400760         1.476024
 O        -3.089098         2.172424         2.698923
 C        -2.179842         1.704483         3.829682
 C        -1.565523         0.607944         2.886473
 C        -0.132241         0.207678         2.424818
 H         0.981734         1.592929        -0.330847
 H        -1.732184         1.427721        -0.647044
 H        -2.303666        -0.049439         0.450879
 H        -0.969027         2.978215         0.633812
 H         0.108523         2.648963         2.227216
 H        -1.600947         2.618611         4.154554
 H        -2.691667         1.367180         4.771386
 H        -2.326822        -0.207906         2.899319
 H         0.598867         0.547566         3.072904
 H         0.014384        -0.922765         2.511717
