19
Iteration:  1625
 O         0.882977         0.789311         0.099843
 C        -0.247465         1.052099         1.030576
 C        -1.719400         0.920717         0.492965
 C        -2.017296         1.635624         1.784011
 C        -0.673369         2.421202         1.604038
 O        -3.046642         2.222444         2.697243
 C        -2.138646         1.662268         3.928669
 C        -1.638211         0.610409         2.889553
 C        -0.206796         0.246629         2.378666
 H         1.103298        -0.111518         0.256963
 H        -1.749023         1.284382        -0.505322
 H        -2.053094        -0.077839         0.637298
 H        -0.886760         3.112126         0.744821
 H        -0.181553         2.860148         2.467149
 H        -1.577227         2.479083         4.223536
 H        -2.769837         1.359655         4.756000
 H        -2.241726        -0.280497         2.950341
 H         0.610425         0.590973         3.060140
 H        -0.006341        -0.765851         2.149778
