19
Iteration:  4131
 O         0.797755         0.725490         0.164904
 C        -0.239101         1.047544         1.059116
 C        -1.758825         0.846427         0.456241
 C        -1.911479         1.656298         1.837731
 C        -0.607992         2.417801         1.528331
 O        -2.987489         2.252875         2.624769
 C        -2.387404         1.678787         3.905732
 C        -1.536292         0.633772         2.985979
 C        -0.079298         0.203491         2.428511
 H         0.726622         1.294002        -0.597928
 H        -1.950569         1.344276        -0.470637
 H        -2.184824        -0.155015         0.570732
 H        -0.941495         3.086204         0.728589
 H        -0.099102         2.839368         2.393078
 H        -1.923750         2.552215         4.450446
 H        -3.195873         1.211500         4.372744
 H        -2.073495        -0.291416         3.000352
 H         0.735251         0.701311         3.032471
 H         0.129830        -0.829264         2.268382
