19
Iteration:  3916charge 0 multiplicity 1
 O         0.888667         0.754375         0.226919
 C        -0.234696         1.001611         1.028639
 C        -1.788762         0.796540         0.516991
 C        -1.957825         1.615522         1.833970
 C        -0.723446         2.365771         1.620611
 O        -2.967777         2.291220         2.640301
 C        -2.234370         1.695393         3.850236
 C        -1.573917         0.606639         2.856133
 C        -0.197359         0.286415         2.369301
 H         0.960650         1.601859        -0.371675
 H        -1.666320         1.176861        -0.453732
 H        -2.230600        -0.286506         0.688312
 H        -0.930166         3.213008         0.798516
 H        -0.254916         2.821683         2.529536
 H        -1.479799         2.519041         4.155366
 H        -2.891651         1.417162         4.778301
 H        -2.330737        -0.166970         2.681387
 H         0.673090         0.500645         2.947838
 H        -0.119079        -0.725767         2.262022
