19
Iteration:  4832
 O         0.932703         0.783038         0.209252
 C        -0.329854         0.969901         0.981100
 C        -1.685570         0.841339         0.508482
 C        -1.976113         1.646609         1.944223
 C        -0.763665         2.478788         1.494483
 O        -2.953932         2.250125         2.649527
 C        -2.277378         1.621666         3.926052
 C        -1.546138         0.616574         2.919054
 C        -0.171038         0.303196         2.372917
 H         0.704076        -0.005972        -0.365671
 H        -1.935671         1.506553        -0.312507
 H        -2.090170        -0.158026         0.173935
 H        -1.064752         3.143752         0.620776
 H        -0.130992         3.097406         2.279421
 H        -1.707370         2.299207         4.448826
 H        -3.110846         1.192203         4.497352
 H        -2.194302        -0.211786         2.848543
 H         0.617389         0.835560         2.838466
 H         0.193615        -0.743490         2.281445
