19
Iteration:  3638
 O         0.782817         0.681253         0.166033
 C        -0.251710         1.004965         1.101623
 C        -1.736384         0.858856         0.509687
 C        -1.939330         1.682571         1.838988
 C        -0.589836         2.447142         1.554854
 O        -2.973339         2.173931         2.603783
 C        -2.307600         1.652561         3.879031
 C        -1.593907         0.625781         2.858173
 C        -0.133444         0.293972         2.453103
 H         0.601119         1.339669        -0.470341
 H        -1.930233         1.595261        -0.350641
 H        -2.059053        -0.164888         0.616218
 H        -0.806232         3.307709         0.872178
 H        -0.218964         2.989051         2.537338
 H        -1.582506         2.506522         4.134510
 H        -3.051023         1.428532         4.807966
 H        -2.187449        -0.301974         2.640488
 H         0.680189         0.669298         3.087796
 H         0.168446        -0.634573         2.261588
