19
Iteration:  1196charge 0 multiplicity 1
 O         0.880499         0.782220         0.092895
 C        -0.256074         0.924059         1.033569
 C        -1.872661         0.802628         0.516846
 C        -1.908062         1.687960         1.834866
 C        -0.601713         2.453954         1.539668
 O        -3.011268         2.232684         2.641059
 C        -2.273238         1.690355         3.913390
 C        -1.554075         0.663704         2.904524
 C        -0.207078         0.182500         2.453696
 H         1.380611         1.638969         0.283837
 H        -2.020597         1.333501        -0.417048
 H        -2.351531        -0.173809         0.527390
 H        -0.648898         3.212989         0.823180
 H         0.092267         2.798312         2.333343
 H        -1.665160         2.570722         4.362117
 H        -2.936480         1.180124         4.655810
 H        -2.351808        -0.047905         2.753015
 H         0.673182         0.504559         3.037171
 H        -0.067652        -0.903366         2.334443
