19
Iteration:  3828charge 0 multiplicity 1
 O         0.885001         0.644104         0.232954
 C        -0.288247         0.963600         1.044580
 C        -1.716546         0.932953         0.523850
 C        -2.016000         1.655301         1.875192
 C        -0.703985         2.524491         1.509980
 O        -3.010935         2.252781         2.615233
 C        -2.237440         1.595486         3.871540
 C        -1.566759         0.602754         2.892074
 C        -0.145262         0.291674         2.461029
 H         0.752454         1.067348        -0.705473
 H        -1.790092         1.589431        -0.316065
 H        -2.224893        -0.111507         0.303260
 H        -0.744311         3.350326         0.666462
 H        -0.139008         2.893944         2.346417
 H        -1.450594         2.342579         4.239223
 H        -2.923599         1.046434         4.627870
 H        -2.180114        -0.265981         2.646334
 H         0.670505         0.852950         2.888651
 H         0.072790        -0.697764         2.401534
