19
Iteration:  4125
 O         0.839882         0.758588         0.148848
 C        -0.233889         0.995849         1.050784
 C        -1.798354         0.828969         0.587541
 C        -1.942296         1.657967         1.856931
 C        -0.573992         2.416139         1.569751
 O        -3.008674         2.236196         2.596589
 C        -2.347009         1.717771         3.832852
 C        -1.560260         0.634843         2.913464
 C        -0.118512         0.242808         2.415772
 H         0.666106         1.241332        -0.651978
 H        -1.873971         1.483467        -0.343472
 H        -2.285372        -0.174367         0.684384
 H        -0.879337         3.024241         0.680990
 H         0.038959         2.816221         2.492816
 H        -1.913837         2.415809         4.540695
 H        -3.149716         1.127151         4.490913
 H        -2.078760        -0.361290         3.068989
 H         0.773149         0.624630         2.928904
 H         0.235486        -0.826512         2.254858
