19
Iteration:  3875charge 0 multiplicity 1
 O         0.866793         0.792272         0.151686
 C        -0.235962         0.930163         1.048785
 C        -1.719303         0.859080         0.554675
 C        -1.878336         1.715129         1.876694
 C        -0.640081         2.389772         1.497077
 O        -3.042160         2.185867         2.609515
 C        -2.292801         1.717919         3.891589
 C        -1.649398         0.586645         2.959654
 C        -0.148340         0.231565         2.410941
 H         0.951746         1.510929        -0.436180
 H        -1.626386         1.509457        -0.346538
 H        -2.504124         0.003840         0.493646
 H        -0.912148         3.070046         0.729567
 H         0.045218         2.853441         2.267767
 H        -1.449777         2.542229         4.118838
 H        -3.078938         1.433453         4.589930
 H        -2.377420        -0.291576         2.991664
 H         0.564000         0.705776         3.105991
 H        -0.095332        -0.939207         2.235387
