19
Iteration:   609
 O         0.775363         0.572325         0.150315
 C        -0.274011         1.059031         1.058376
 C        -1.618954         0.982069         0.427723
 C        -1.896457         1.698282         1.785723
 C        -0.557192         2.424995         1.650179
 O        -2.962319         2.299737         2.661735
 C        -2.421947         1.633417         3.894554
 C        -1.637149         0.609562         2.946510
 C        -0.237283         0.228273         2.344767
 H         1.435700         1.238367         0.148580
 H        -1.495299         1.495811        -0.591695
 H        -1.951951        -0.130418         0.313787
 H        -0.497064         3.467758         1.057376
 H         0.042555         2.446289         2.494295
 H        -1.810087         2.329571         4.541967
 H        -3.159806         1.153546         4.588714
 H        -2.436177        -0.203002         2.851469
 H         0.653918         0.655574         2.990930
 H        -0.142362        -0.818327         2.115457
