19
Iteration:  2321
 O         0.793627         0.817858         0.221350
 C        -0.268855         0.984184         1.089842
 C        -1.834704         1.020707         0.498750
 C        -1.890786         1.604969         1.830868
 C        -0.618414         2.477215         1.553236
 O        -2.975452         2.226067         2.614658
 C        -2.202561         1.619151         3.800808
 C        -1.574223         0.532663         2.918918
 C        -0.138114         0.125841         2.489993
 H         0.555469         1.147004        -0.660513
 H        -1.899318         1.731991        -0.320246
 H        -2.257418         0.112023         0.250734
 H        -0.969647         3.127831         0.654073
 H        -0.201268         3.147475         2.487885
 H        -1.543876         2.316471         4.289953
 H        -2.947574         1.241066         4.450169
 H        -2.325988        -0.221749         2.689258
 H         0.725222         0.527777         3.064978
 H         0.048021        -0.994708         2.335545
