19
Iteration:  4351charge 0 multiplicity 1
 O         0.861941         0.846904         0.171565
 C        -0.234701         0.941069         1.009856
 C        -1.749510         0.896389         0.516513
 C        -1.933952         1.575873         1.862687
 C        -0.634262         2.294653         1.593052
 O        -3.017921         2.220274         2.648934
 C        -2.309595         1.782571         3.839551
 C        -1.594706         0.588122         2.899046
 C        -0.151508         0.247366         2.420080
 H         0.528802         1.181120        -0.696167
 H        -1.982143         1.600259        -0.270454
 H        -2.234322        -0.186920         0.608832
 H        -0.604039         3.192416         0.746687
 H         0.147750         2.702869         2.277209
 H        -1.654423         2.485918         4.293667
 H        -2.971771         1.624423         4.589883
 H        -2.208982        -0.341868         2.897475
 H         0.594003         0.820394         3.031202
 H         0.118680        -0.851549         2.505766
