19
Iteration:  4624
 O         0.752464         0.652785         0.182875
 C        -0.173681         1.081987         1.072298
 C        -1.650017         0.935003         0.547572
 C        -2.014301         1.672873         1.823323
 C        -0.540455         2.473527         1.550211
 O        -3.186133         2.122150         2.703413
 C        -2.224566         1.632410         3.786416
 C        -1.530253         0.650459         2.942849
 C        -0.130555         0.293153         2.396879
 H         0.606455         1.087508        -0.706296
 H        -1.774226         1.439239        -0.341293
 H        -2.160625         0.000680         0.193317
 H        -0.641890         3.200721         0.765506
 H         0.022566         2.853865         2.424460
 H        -1.666413         2.572391         4.275916
 H        -2.881863         1.190607         4.567903
 H        -2.149560        -0.247588         2.863338
 H         0.683897         0.637993         2.957268
 H        -0.000907        -0.795208         2.192744
