19
Iteration:  3040charge 0 multiplicity 1
 O         0.850195         0.777961         0.186501
 C        -0.212059         1.031350         1.106100
 C        -1.841493         0.834427         0.575384
 C        -1.957321         1.627796         1.800525
 C        -0.692676         2.443762         1.566616
 O        -2.901391         2.211473         2.622181
 C        -2.228685         1.651578         3.799596
 C        -1.655215         0.574124         2.898452
 C        -0.160699         0.255706         2.454483
 H         0.849717         1.492589        -0.500732
 H        -2.002702         1.552316        -0.251608
 H        -2.243007        -0.107470         0.394705
 H        -0.710602         3.056989         0.624749
 H        -0.245197         3.061301         2.415920
 H        -1.541645         2.391034         4.193725
 H        -2.961547         1.372670         4.584156
 H        -2.126580        -0.404413         2.788909
 H         0.730352         0.728548         3.009150
 H        -0.011274        -0.787047         2.193312
