19
Iteration:   455
 O         0.877527         0.581634         0.298447
 C        -0.250653         1.018738         1.050353
 C        -1.688207         1.007948         0.456213
 C        -1.899592         1.718973         1.902649
 C        -0.583933         2.474578         1.605544
 O        -2.903112         2.346927         2.633112
 C        -2.365308         1.509512         3.877388
 C        -1.691804         0.590628         2.828558
 C        -0.245471         0.229042         2.343807
 H         0.835130         1.161163        -0.538673
 H        -1.750976         1.747219        -0.363635
 H        -2.162970        -0.011876         0.282485
 H        -1.008865         3.263299         0.797002
 H         0.013852         2.881449         2.405062
 H        -1.706309         2.240133         4.346750
 H        -3.202623         1.136448         4.445035
 H        -2.415564        -0.215676         2.629484
 H         0.635630         0.387356         3.020042
 H        -0.182534        -0.823913         2.106519
