19
Iteration:  2841
 O         0.807543         0.650248         0.242660
 C        -0.260370         1.077443         1.016834
 C        -1.773284         0.875844         0.567835
 C        -1.909361         1.669319         1.816109
 C        -0.630559         2.522504         1.517351
 O        -2.999199         2.129836         2.664132
 C        -2.226424         1.649733         3.889697
 C        -1.580770         0.621689         2.835456
 C        -0.182996         0.322607         2.414568
 H         0.670438         1.084821        -0.630802
 H        -1.994728         1.340444        -0.387628
 H        -2.164635        -0.066978         0.476085
 H        -0.812341         3.329488         0.737525
 H        -0.017483         2.886985         2.371385
 H        -1.547417         2.455832         4.274634
 H        -2.954427         1.171731         4.705032
 H        -2.200274        -0.309372         2.733164
 H         0.569819         0.721211         3.115623
 H         0.220986        -0.752440         2.207567
