19
Iteration:  2510charge 0 multiplicity 1
 O         0.766606         0.685026         0.153418
 C        -0.248473         0.962763         1.049718
 C        -1.700493         0.964256         0.447902
 C        -2.021920         1.657691         1.841001
 C        -0.620825         2.391716         1.519015
 O        -2.998319         2.271972         2.756543
 C        -2.263235         1.602483         3.847418
 C        -1.635094         0.596373         2.861539
 C        -0.094676         0.297425         2.470422
 H         1.076975         1.533114        -0.243414
 H        -1.605398         1.680907        -0.291585
 H        -2.054800         0.047006         0.001605
 H        -0.783042         2.942585         0.590838
 H        -0.078599         2.830273         2.438343
 H        -1.564097         2.296906         4.269772
 H        -2.897597         1.135714         4.586329
 H        -2.182149        -0.342829         2.798459
 H         0.657090         0.870700         3.102219
 H         0.087052        -0.766036         2.548003
