19
Iteration:  3999
 O         0.775208         0.721465         0.123406
 C        -0.207043         1.043933         1.030624
 C        -1.670940         0.850265         0.591440
 C        -1.921908         1.594287         1.859305
 C        -0.656004         2.401092         1.571767
 O        -2.922810         2.226972         2.631858
 C        -2.349603         1.667793         3.838097
 C        -1.629858         0.622163         2.907234
 C        -0.142201         0.323889         2.447072
 H         0.771935         1.273334        -0.622043
 H        -1.909769         1.403209        -0.343985
 H        -2.012184        -0.105398         0.407628
 H        -0.695209         3.038129         0.741569
 H        -0.256655         2.883512         2.404525
 H        -1.689205         2.465622         4.482584
 H        -3.151114         1.202939         4.446503
 H        -2.399319        -0.148998         2.776040
 H         0.661875         0.799293         3.104696
 H        -0.085357        -0.813420         2.373813
