19
Iteration:   232charge 0 multiplicity 1
 O         0.928131         0.664995         0.231481
 C        -0.208065         1.047810         1.036179
 C        -1.659880         1.028083         0.499492
 C        -1.902529         1.708381         1.865930
 C        -0.527722         2.405242         1.715538
 O        -3.024559         2.331940         2.629564
 C        -2.295967         1.612885         3.745876
 C        -1.742815         0.608701         2.884488
 C        -0.317774         0.086944         2.355030
 H         0.826053         1.247156        -0.510491
 H        -1.648245         1.790345        -0.260992
 H        -2.044821         0.028193         0.371953
 H        -0.592965         3.240473         1.072578
 H        -0.022189         2.616894         2.723319
 H        -1.440189         2.056616         4.262540
 H        -3.041778         1.279309         4.481952
 H        -2.553363        -0.129258         2.650460
 H         0.549272         0.118239         2.947540
 H        -0.689205        -0.955511         2.057447
