19
Iteration:   991charge 0 multiplicity 1
 O         0.810422         0.796994         0.181923
 C        -0.291470         1.019936         0.987812
 C        -1.747815         0.912552         0.420653
 C        -1.929344         1.580184         1.849543
 C        -0.596411         2.284505         1.752701
 O        -2.844636         2.293366         2.636734
 C        -2.304324         1.723364         3.826849
 C        -1.613307         0.626130         2.888288
 C        -0.258816         0.166658         2.362913
 H         0.967296         1.645936        -0.261780
 H        -1.916951         1.472893        -0.490269
 H        -2.285682        -0.031619         0.512142
 H        -0.781659         3.205409         1.211516
 H        -0.068756         2.528566         2.638797
 H        -1.534839         2.415100         4.366475
 H        -3.231799         1.465636         4.448577
 H        -2.300161        -0.273235         2.817615
 H         0.650090         0.513399         2.942629
 H        -0.108966        -0.931481         2.447579
