19
Iteration:  3321charge 0 multiplicity 1
 O         0.808168         0.667615         0.224385
 C        -0.274578         1.059587         1.057110
 C        -1.715484         0.908543         0.575152
 C        -1.900938         1.649663         1.835629
 C        -0.647944         2.479623         1.545191
 O        -2.992123         2.254647         2.635778
 C        -2.268998         1.566340         3.841667
 C        -1.573311         0.586480         2.908627
 C        -0.152022         0.329946         2.354131
 H         0.768200         1.050654        -0.650560
 H        -2.043667         1.411041        -0.342003
 H        -2.096192        -0.003676         0.508730
 H        -0.871740         3.107108         0.713790
 H        -0.048765         2.952164         2.316327
 H        -1.670310         2.219829         4.432807
 H        -3.074057         1.063295         4.453307
 H        -2.227519        -0.264118         2.838400
 H         0.670814         0.787815         3.009250
 H        -0.122380        -0.825076         2.351832
