19
Iteration:  2779charge 0 multiplicity 1
 O         0.763810         0.761804         0.107254
 C        -0.227684         1.063528         1.060585
 C        -1.662471         0.732313         0.517737
 C        -1.957335         1.625287         1.861397
 C        -0.664334         2.480790         1.483734
 O        -2.939312         2.300985         2.677553
 C        -2.239692         1.647844         3.874182
 C        -1.648532         0.511808         2.896778
 C        -0.216761         0.302416         2.482404
 H         1.131883         1.570871        -0.327802
 H        -1.760908         1.226089        -0.487500
 H        -1.932647        -0.390068         0.660451
 H        -1.039787         3.196731         0.767024
 H        -0.160330         2.982940         2.298293
 H        -1.463234         2.226613         4.325776
 H        -2.885392         1.451030         4.664539
 H        -2.268988        -0.377464         2.931709
 H         0.622645         0.653185         3.115443
 H        -0.097636        -0.695331         2.173362
