19
Iteration:   310charge 0 multiplicity 1
 O         0.803155         0.721701         0.211130
 C        -0.286253         0.976972         1.071342
 C        -1.619823         0.935225         0.456187
 C        -1.875794         1.784133         1.907555
 C        -0.588981         2.421720         1.637437
 O        -2.861383         2.409914         2.721125
 C        -2.423088         1.562835         3.746620
 C        -1.717171         0.553119         2.765246
 C        -0.261715         0.103760         2.383804
 H         1.522023         1.094030         0.666397
 H        -1.673713         1.502641        -0.510440
 H        -2.236111         0.053187         0.449533
 H        -0.585215         3.220444         0.866347
 H        -0.025631         2.973566         2.390630
 H        -1.559972         2.013377         4.210274
 H        -3.138294         1.285981         4.556009
 H        -2.410273        -0.258968         2.421870
 H         0.562174         0.198320         3.074574
 H        -0.311811        -1.018008         2.141608
