19
Iteration:  2027charge 0 multiplicity 1
 O         0.805294         0.948286         0.210877
 C        -0.306843         0.980779         1.013843
 C        -1.681916         0.833741         0.478526
 C        -2.000411         1.681978         1.786482
 C        -0.572798         2.376744         1.478079
 O        -2.949709         2.273538         2.797786
 C        -2.289509         1.548697         3.866137
 C        -1.605232         0.633017         2.833782
 C        -0.186611         0.277515         2.419051
 H         1.057224        -0.010736        -0.037103
 H        -1.895098         1.310098        -0.536992
 H        -2.221832        -0.175705         0.711337
 H        -0.720492         3.082101         0.701770
 H         0.107706         2.701012         2.228877
 H        -1.787137         2.406284         4.408838
 H        -2.920561         0.902570         4.439284
 H        -2.130195        -0.336102         2.877514
 H         0.631331         0.623398         3.130679
 H        -0.152880        -0.807215         2.229483
