19
Iteration:  2691charge 0 multiplicity 1
 O         0.574571         0.824506         0.083562
 C        -0.243944         0.948146         1.157792
 C        -1.660052         0.703188         0.567821
 C        -1.974797         1.703884         1.770533
 C        -0.667169         2.426699         1.584604
 O        -2.982724         2.240459         2.632508
 C        -2.204158         1.649083         3.835455
 C        -1.541622         0.718264         2.829444
 C        -0.078362         0.293013         2.463162
 H         1.483561         0.611509         0.419765
 H        -1.651760         1.279887        -0.434091
 H        -1.980120        -0.393829         0.679900
 H        -0.623304         3.283483         0.902850
 H        -0.345214         2.664684         2.582507
 H        -1.671602         2.490064         4.267825
 H        -2.902480         1.171302         4.476830
 H        -2.094978        -0.222430         2.635362
 H         0.785392         0.745644         2.952009
 H        -0.100697        -0.753175         2.348171
