19
Iteration:  4251charge 0 multiplicity 1
 O         0.788428         0.816810         0.192524
 C        -0.243996         0.939074         1.075375
 C        -1.754378         0.842387         0.567906
 C        -1.973662         1.692761         1.847654
 C        -0.598032         2.402913         1.572178
 O        -3.041897         2.203689         2.546994
 C        -2.209460         1.675442         3.840922
 C        -1.552062         0.656112         2.900026
 C        -0.136007         0.156423         2.466573
 H         0.623001         1.532459        -0.533687
 H        -2.081470         1.366616        -0.275646
 H        -2.296844        -0.171507         0.461326
 H        -0.589506         3.250896         0.738186
 H        -0.072065         2.945277         2.503669
 H        -1.484487         2.441412         4.155760
 H        -2.883812         1.482061         4.602804
 H        -2.276238        -0.122353         2.715782
 H         0.703431         0.647568         2.999917
 H        -0.036840        -0.869969         2.354140
