19
Iteration:  1496charge 0 multiplicity 1
 O         0.842911         0.858428         0.180109
 C        -0.142666         0.977693         1.073560
 C        -1.872008         0.957078         0.563625
 C        -1.944412         1.643602         1.790953
 C        -0.605896         2.363035         1.522125
 O        -3.041059         2.126996         2.673352
 C        -2.179171         1.716117         3.823386
 C        -1.633781         0.683672         2.898174
 C        -0.219251         0.196816         2.383867
 H         1.400922         0.026880         0.232920
 H        -1.828636         1.473516        -0.384638
 H        -2.237528        -0.062821         0.559392
 H        -0.585628         3.125843         0.893200
 H        -0.155957         2.745268         2.362129
 H        -1.651747         2.678983         4.049209
 H        -2.772322         1.348670         4.689620
 H        -2.390009        -0.061174         2.792157
 H         0.644130         0.585598         3.020359
 H        -0.152004        -0.861832         2.260534
