19
Iteration:  3740charge 0 multiplicity 1
 O         0.863139         0.759504         0.212718
 C        -0.270392         0.964450         1.032972
 C        -1.711006         0.917486         0.463405
 C        -1.947050         1.612973         1.887218
 C        -0.644409         2.372683         1.523764
 O        -3.066701         2.183548         2.653894
 C        -2.193227         1.732021         3.839140
 C        -1.619879         0.632698         2.924967
 C        -0.181007         0.238340         2.445685
 H         0.960641         1.587882        -0.388532
 H        -1.911417         1.445381        -0.472445
 H        -2.143255        -0.113017         0.337854
 H        -0.838002         3.147632         0.723290
 H         0.071185         2.758751         2.215804
 H        -1.406794         2.518207         4.054753
 H        -2.836798         1.367347         4.716016
 H        -2.313759        -0.216631         2.915715
 H         0.570147         0.747396         3.008164
 H        -0.154830        -0.768747         2.423115
