19
Iteration:  2001charge 0 multiplicity 1
 O         0.942424         0.989835         0.139054
 C        -0.252919         1.026703         1.021965
 C        -1.841506         0.859117         0.521526
 C        -1.951743         1.545565         1.856417
 C        -0.687756         2.364663         1.533474
 O        -2.932030         2.297552         2.632130
 C        -2.321513         1.649096         3.846071
 C        -1.560972         0.575307         2.990008
 C        -0.144488         0.135561         2.426502
 H         0.823352         0.118691        -0.374755
 H        -2.111011         1.638632        -0.159700
 H        -2.569912         0.089316         0.395310
 H        -0.829240         3.270586         0.862377
 H        -0.047090         2.748491         2.422274
 H        -1.594702         2.454257         4.197320
 H        -3.159175         1.287885         4.581345
 H        -2.233891        -0.345019         2.841760
 H         0.528072         0.427572         3.173447
 H         0.105356        -0.932694         2.170010
