19
Iteration:  3018charge 0 multiplicity 1
 O         0.848365         0.763881         0.174206
 C        -0.214055         1.020466         0.996334
 C        -1.688057         0.765849         0.515213
 C        -1.977574         1.631186         1.858697
 C        -0.672145         2.397254         1.548506
 O        -2.983252         2.352832         2.703010
 C        -2.339769         1.609226         3.853010
 C        -1.564477         0.655441         2.916729
 C        -0.156792         0.246073         2.402811
 H         0.653017         1.203796        -0.661898
 H        -1.939928         1.242015        -0.436186
 H        -1.980753        -0.227031         0.556609
 H        -0.917856         3.328912         0.982336
 H        -0.074884         2.828910         2.412017
 H        -1.676946         2.155694         4.488637
 H        -3.187674         1.135724         4.405590
 H        -2.117010        -0.299306         2.730250
 H         0.588166         0.871333         2.992424
 H         0.107842        -0.792725         2.203670
