19
Iteration:  3127
 O         0.819845         0.836308         0.145858
 C        -0.224593         0.983826         1.058871
 C        -1.753346         0.834379         0.525445
 C        -1.961064         1.652369         1.811446
 C        -0.621627         2.365986         1.538218
 O        -2.940276         2.234896         2.690862
 C        -2.305542         1.654255         3.837411
 C        -1.596471         0.626531         2.831527
 C        -0.165172         0.257816         2.538272
 H         0.548723         1.182195        -0.711114
 H        -1.819059         1.448632        -0.480976
 H        -2.270321        -0.134963         0.420806
 H        -0.813894         3.069533         0.736115
 H         0.009662         2.744002         2.380945
 H        -1.712601         2.360407         4.367451
 H        -2.899464         1.068951         4.547516
 H        -2.335043        -0.173729         2.883546
 H         0.566845         0.775360         3.153256
 H         0.127724        -0.762523         2.424248
