19
Iteration:  2247charge 0 multiplicity 1
 O         0.724018         0.913182         0.076369
 C        -0.257790         0.984020         1.059819
 C        -1.707682         0.887098         0.502426
 C        -1.924498         1.594217         1.885142
 C        -0.594579         2.429012         1.568621
 O        -2.974588         2.277421         2.635762
 C        -2.216893         1.572626         3.864106
 C        -1.618641         0.557546         2.901113
 C        -0.219593         0.200913         2.425480
 H         1.613159         0.751352         0.524119
 H        -2.009411         1.547725        -0.333629
 H        -2.202914        -0.099492         0.272977
 H        -0.758276         3.108227         0.713434
 H         0.148124         2.886280         2.181360
 H        -1.615149         2.398019         4.380240
 H        -2.934255         1.226879         4.601360
 H        -2.240577        -0.349512         2.947930
 H         0.457239         0.814076         3.101603
 H        -0.039876        -0.816754         2.529326
