19
Iteration:  3305
 O         0.778890         0.676476         0.241995
 C        -0.220856         1.042783         1.079735
 C        -1.817263         0.950255         0.461512
 C        -2.017107         1.658891         1.854457
 C        -0.582738         2.449927         1.498252
 O        -2.985063         2.197689         2.697261
 C        -2.318160         1.597410         3.826491
 C        -1.554438         0.611350         2.840025
 C        -0.066052         0.256391         2.493380
 H         0.678889         1.236340        -0.593678
 H        -1.654201         1.598763        -0.412528
 H        -2.160735        -0.267146         0.378407
 H        -0.762689         3.302425         0.714037
 H         0.027815         3.045438         2.226328
 H        -1.640620         2.432648         4.200806
 H        -2.909787         1.350804         4.668722
 H        -2.230671        -0.304228         2.735045
 H         0.697499         0.722962         3.083196
 H         0.107985        -0.698536         2.134595
