19
Iteration:   823charge 0 multiplicity 1
 O         0.852567         0.717965         0.246332
 C        -0.302076         0.956287         1.021165
 C        -1.776377         1.100831         0.423848
 C        -2.023310         1.606566         1.861379
 C        -0.536118         2.323034         1.601413
 O        -2.981318         2.268156         2.679314
 C        -2.246702         1.736373         3.838780
 C        -1.693423         0.519233         2.864785
 C        -0.163259         0.175052         2.350020
 H         1.447928         1.398430         0.519143
 H        -1.700825         1.793714        -0.399664
 H        -2.324465         0.208392         0.167943
 H        -0.672495         3.082749         0.955056
 H         0.157182         2.566220         2.483276
 H        -1.383817         2.505181         4.077105
 H        -2.886084         1.432437         4.698001
 H        -2.363408        -0.325084         2.746470
 H         0.656975         0.693938         2.869516
 H        -0.044464        -0.930592         2.335906
