19
Iteration:   795
 O         0.874468         0.698704         0.143905
 C        -0.210066         0.961273         1.065556
 C        -1.785607         1.005369         0.524172
 C        -1.949155         1.730361         1.820507
 C        -0.532333         2.448279         1.551458
 O        -2.971693         2.235538         2.718268
 C        -2.304755         1.596540         3.856350
 C        -1.645057         0.685765         2.817423
 C        -0.280307         0.133785         2.418394
 H         1.600225         1.173590         0.489695
 H        -1.770815         1.454357        -0.498458
 H        -2.382684         0.063298         0.460738
 H        -0.534170         3.329613         0.668609
 H        -0.063527         2.799194         2.428155
 H        -1.731317         2.319074         4.357443
 H        -2.873733         1.017930         4.567312
 H        -2.326982        -0.140369         2.513144
 H         0.611315         0.409954         3.013802
 H        -0.547169        -0.893640         2.357956
