19
Iteration:  4553charge 0 multiplicity 1
 O         0.923815         0.824630         0.245016
 C        -0.285054         0.978644         1.035977
 C        -1.742480         0.757449         0.520916
 C        -1.921471         1.669502         1.774752
 C        -0.684734         2.462036         1.402300
 O        -2.999238         2.267322         2.795877
 C        -2.223360         1.659956         3.880298
 C        -1.624304         0.666863         2.869534
 C        -0.220474         0.156621         2.371564
 H         0.932525         1.699978        -0.284259
 H        -1.849106         1.035465        -0.568945
 H        -2.198936        -0.167545         0.547693
 H        -0.821374         3.171227         0.481043
 H        -0.191359         2.975847         2.365112
 H        -1.602453         2.297978         4.463055
 H        -2.826587         0.960707         4.595506
 H        -2.329822        -0.159432         2.876567
 H         0.546396         0.640667         3.065492
 H        -0.088591        -0.919298         2.345821
