19
Iteration:  2706charge 0 multiplicity 1
 O         0.738193         0.785520         0.019918
 C        -0.218333         1.038008         1.048380
 C        -1.750027         0.807945         0.550216
 C        -1.958578         1.602708         1.827749
 C        -0.705655         2.454060         1.610733
 O        -3.013949         2.199471         2.647135
 C        -2.301870         1.760741         3.801895
 C        -1.519705         0.652968         2.976455
 C        -0.073489         0.204261         2.432748
 H         1.658191         0.671044         0.413415
 H        -1.846957         1.203957        -0.430753
 H        -2.236999        -0.189985         0.609129
 H        -0.794282         3.157573         0.781475
 H        -0.120423         2.935206         2.431574
 H        -1.599637         2.566457         4.279081
 H        -2.950204         1.456847         4.651765
 H        -2.208864        -0.168428         3.030893
 H         0.798839         0.482461         3.119157
 H        -0.025030        -0.902916         2.254372
