19
Iteration:   522charge 0 multiplicity 1
 O         0.842075         0.726653         0.171305
 C        -0.168581         1.029823         1.082498
 C        -1.773049         0.923334         0.421582
 C        -1.973325         1.524950         1.841172
 C        -0.577910         2.405992         1.728860
 O        -2.929919         2.420349         2.645304
 C        -2.368898         1.794941         3.840588
 C        -1.676832         0.530152         2.867850
 C        -0.209171         0.062736         2.377109
 H         1.293117         1.516239         0.317017
 H        -2.014103         1.629760        -0.442259
 H        -2.018525        -0.192966         0.203000
 H        -0.742435         3.208823         0.802022
 H         0.207867         2.855364         2.451482
 H        -1.444779         2.355575         4.186815
 H        -3.055825         1.342505         4.575354
 H        -2.379572        -0.311287         2.656352
 H         0.697723         0.121491         3.079910
 H        -0.228788        -0.920669         1.991261
