19
Iteration:   838
 O         0.793510         0.740416         0.190821
 C        -0.241146         1.024182         1.069314
 C        -1.703486         0.979084         0.478734
 C        -1.938815         1.601227         1.845383
 C        -0.624244         2.400542         1.695697
 O        -2.904886         2.291693         2.613789
 C        -2.196869         1.677607         3.764628
 C        -1.657276         0.549484         2.911659
 C        -0.337804         0.126956         2.380168
 H         1.412543         1.466441         0.157951
 H        -1.803021         1.742152        -0.293258
 H        -2.158169         0.070189         0.099122
 H        -0.792602         3.309133         0.846689
 H        -0.129089         2.787013         2.560109
 H        -1.390924         2.308094         4.169457
 H        -2.914217         1.543359         4.583084
 H        -2.323638        -0.318003         2.985422
 H         0.504638         0.350361         3.063777
 H        -0.290766        -0.868694         2.006789
