19
Iteration:  2654
 O         0.872929         0.679373         0.063345
 C        -0.233217         0.982845         0.946763
 C        -1.817258         0.913300         0.592580
 C        -1.911820         1.613102         1.914283
 C        -0.700400         2.425483         1.378588
 O        -2.954800         2.216287         2.685777
 C        -2.387096         1.637830         3.927254
 C        -1.562165         0.596885         2.953838
 C        -0.096462         0.364570         2.474365
 H         1.671386         1.265667         0.339370
 H        -1.922445         1.597750        -0.210867
 H        -2.317844         0.091788         0.239829
 H        -1.077647         3.061809         0.546486
 H        -0.141020         3.013366         2.139169
 H        -1.669892         2.262605         4.379366
 H        -3.267511         1.427981         4.656813
 H        -2.289494        -0.222460         2.801677
 H         0.669430         0.727317         3.119789
 H         0.096040        -0.754397         2.546749
