19
Iteration:  1411
 O         0.793169         0.736819         0.125902
 C        -0.236370         0.953111         1.059734
 C        -1.725272         0.912709         0.551804
 C        -1.951629         1.736015         1.806556
 C        -0.631927         2.465790         1.439425
 O        -2.965300         2.254816         2.766218
 C        -2.316680         1.574054         3.821215
 C        -1.645971         0.569906         2.860420
 C        -0.145118         0.312545         2.471379
 H         1.630052         0.483962         0.609710
 H        -1.669799         1.487925        -0.377439
 H        -2.297603         0.003791         0.379786
 H        -0.799280         2.999570         0.498879
 H        -0.021333         3.056345         2.247093
 H        -1.636488         2.361679         4.240187
 H        -2.931650         1.118945         4.606637
 H        -2.323272        -0.258005         2.758200
 H         0.720951         0.560627         3.084170
 H        -0.148603        -0.749064         2.352083
