19
Iteration:  2033charge 0 multiplicity 1
 O         0.812677         0.913293         0.172727
 C        -0.261789         1.046922         1.062199
 C        -1.716218         0.788628         0.482587
 C        -1.985416         1.685061         1.793043
 C        -0.575271         2.437790         1.461963
 O        -2.979660         2.265730         2.788272
 C        -2.260087         1.507747         3.841325
 C        -1.574583         0.633892         2.848730
 C        -0.220703         0.271207         2.437025
 H         0.984552        -0.030857         0.132287
 H        -1.857578         1.300858        -0.428795
 H        -2.245538        -0.104870         0.603675
 H        -0.695177         3.159681         0.608596
 H         0.145438         2.679479         2.315065
 H        -1.569423         2.133899         4.435780
 H        -3.017331         1.045631         4.569692
 H        -2.370124        -0.149815         2.720866
 H         0.470858         0.689711         3.136174
 H        -0.106289        -0.810670         2.209554
