19
Iteration:    54
 O         0.929397         0.766884         0.361683
 C        -0.215910         1.026356         1.022059
 C        -1.692543         1.094563         0.418226
 C        -1.937023         1.682348         1.913863
 C        -0.443472         2.312622         1.755409
 O        -2.905326         2.414635         2.622684
 C        -2.288978         1.564565         3.804734
 C        -1.784071         0.536109         2.797527
 C        -0.436062         0.105054         2.228534
 H         0.835391         0.166491        -0.336210
 H        -1.907272         1.835015        -0.347729
 H        -2.099901         0.096529         0.242090
 H        -0.578086         3.165077         0.961438
 H         0.155965         2.606884         2.617300
 H        -1.689389         2.186330         4.466366
 H        -3.076875         1.141780         4.441510
 H        -2.606555        -0.157621         2.785320
 H         0.457474         0.353533         2.919439
 H        -0.353258        -0.929185         2.021812
