19
Iteration:   341charge 0 multiplicity 1
 O         0.911320         0.784831         0.188217
 C        -0.236147         0.983099         1.067601
 C        -1.768957         1.032252         0.396315
 C        -1.909373         1.706583         1.814090
 C        -0.506327         2.369640         1.633617
 O        -2.909431         2.245000         2.695578
 C        -2.315635         1.642073         3.855882
 C        -1.772671         0.636843         2.812554
 C        -0.324455         0.140098         2.397214
 H         1.658445         0.284569         0.672995
 H        -1.939528         1.750994        -0.429958
 H        -2.385231         0.172017         0.177089
 H        -0.312344         3.102681         0.857733
 H        -0.171505         2.577982         2.757049
 H        -1.486690         2.274116         4.214280
 H        -2.993628         1.400343         4.714649
 H        -2.470928        -0.172522         2.547133
 H         0.421397         0.253264         3.219220
 H        -0.407293        -1.022612         2.197614
