19
Iteration:  3218charge 0 multiplicity 1
 O         0.921271         0.820773         0.200391
 C        -0.268142         0.981638         1.000742
 C        -1.718578         0.820539         0.448266
 C        -2.006427         1.636582         1.803470
 C        -0.541053         2.361313         1.523920
 O        -3.012991         2.232563         2.747429
 C        -2.254792         1.671997         3.872677
 C        -1.670228         0.621178         2.935315
 C        -0.243420         0.269828         2.385897
 H         0.812354         1.493828        -0.555627
 H        -1.959799         1.364888        -0.449556
 H        -2.224330        -0.227313         0.587933
 H        -0.709188         3.133155         0.681292
 H        -0.110496         2.776895         2.476869
 H        -1.538125         2.480401         4.067087
 H        -2.773186         1.453845         4.750580
 H        -2.328338        -0.325114         3.019899
 H         0.580471         0.618108         3.079859
 H         0.089125        -0.763183         2.336403
