19
Iteration:  1632charge 0 multiplicity 1
 O         0.835664         0.834929         0.173488
 C        -0.229348         1.043474         1.009904
 C        -1.711422         0.825872         0.449855
 C        -1.944651         1.661752         1.797246
 C        -0.685244         2.473427         1.569430
 O        -3.039726         2.231085         2.733401
 C        -2.154356         1.672314         3.889390
 C        -1.637794         0.581251         2.862675
 C        -0.187940         0.237675         2.393508
 H         1.145233        -0.077311         0.254836
 H        -2.089669         1.117191        -0.572964
 H        -2.296136        -0.137073         0.643431
 H        -0.662424         3.333023         0.798404
 H        -0.173048         2.902358         2.483999
 H        -1.286066         2.394740         4.275111
 H        -2.840550         1.279009         4.684826
 H        -2.446820        -0.228967         2.900787
 H         0.657137         0.538023         2.956667
 H        -0.195813        -0.897886         2.198872
