19
Iteration:   825
 O         0.839332         0.716489         0.241985
 C        -0.301880         0.961338         1.028248
 C        -1.762902         1.092385         0.436914
 C        -2.021557         1.593807         1.851284
 C        -0.538107         2.326755         1.614227
 O        -2.959188         2.275654         2.675399
 C        -2.251021         1.730282         3.829905
 C        -1.680180         0.498744         2.867120
 C        -0.188112         0.179437         2.339418
 H         1.447433         1.470882         0.523864
 H        -1.661805         1.798415        -0.338631
 H        -2.274163         0.212004         0.191729
 H        -0.741715         3.237888         0.881527
 H         0.099535         2.592011         2.494797
 H        -1.438899         2.527356         3.996968
 H        -2.865082         1.474378         4.712934
 H        -2.365857        -0.322520         2.782211
 H         0.672478         0.616705         2.892109
 H        -0.096858        -0.864678         2.378142
