19
Iteration:   375charge 0 multiplicity 1
 O         0.810814         0.783433         0.205296
 C        -0.181399         1.012435         1.142857
 C        -1.732643         1.084999         0.479015
 C        -1.955547         1.604957         1.817768
 C        -0.556088         2.371445         1.731988
 O        -2.975865         2.312343         2.545766
 C        -2.288380         1.654386         3.850085
 C        -1.643666         0.603397         2.883152
 C        -0.222591         0.094055         2.303187
 H         0.911520        -0.216765         0.248656
 H        -1.680035         1.892219        -0.269205
 H        -2.179054         0.166286         0.135083
 H        -0.364673         3.137273         0.925148
 H        -0.128429         2.660493         2.750993
 H        -1.591905         2.395707         4.197882
 H        -3.100743         1.523197         4.586178
 H        -2.417413        -0.171272         2.755090
 H         0.585303         0.168924         3.032932
 H        -0.489737        -0.970145         1.921962
