19
Iteration:   648charge 0 multiplicity 1
 O         0.854995         0.808455         0.121250
 C        -0.299324         0.935330         1.053522
 C        -1.813858         0.960588         0.536571
 C        -1.877533         1.740575         1.907628
 C        -0.509792         2.423819         1.525168
 O        -2.894853         2.269696         2.571274
 C        -2.300143         1.600728         3.832069
 C        -1.687230         0.551757         2.867128
 C        -0.336197         0.143925         2.519953
 H         1.574085         1.346511         0.570453
 H        -1.738256         1.483770        -0.382465
 H        -2.367863         0.072592         0.446398
 H        -0.361006         3.011227         0.658521
 H         0.165343         2.781084         2.515193
 H        -1.621691         2.322988         4.274615
 H        -3.101274         1.336270         4.513533
 H        -2.384999        -0.234793         2.666956
 H         0.421564         0.491935         3.162380
 H        -0.123612        -0.924274         2.383347
