19
Iteration:  3963charge 0 multiplicity 1
 O         0.883203         0.696640         0.255259
 C        -0.220255         0.967022         1.037642
 C        -1.784628         0.914828         0.513940
 C        -1.966452         1.723817         1.840580
 C        -0.677712         2.419398         1.533100
 O        -3.005316         2.129112         2.681214
 C        -2.293884         1.671708         3.824552
 C        -1.580622         0.707313         2.847989
 C        -0.136188         0.267363         2.412904
 H         0.688050         1.012717        -0.612049
 H        -1.955709         1.675372        -0.316450
 H        -2.284679        -0.082240         0.488164
 H        -0.709626         3.061459         0.652621
 H        -0.080266         2.960060         2.371559
 H        -1.477042         2.448587         4.360399
 H        -2.936989         1.242427         4.587667
 H        -2.286209        -0.185284         2.801013
 H         0.725726         0.659807         2.957263
 H         0.126462        -0.849499         2.403010
