19
Iteration:  2007charge 0 multiplicity 1
 O         0.925338         0.994212         0.166551
 C        -0.255442         0.953181         1.033268
 C        -1.840054         0.838093         0.478921
 C        -1.952478         1.602260         1.868668
 C        -0.690468         2.351776         1.547909
 O        -2.939295         2.310318         2.662807
 C        -2.345097         1.633657         3.899197
 C        -1.541597         0.605390         2.963620
 C        -0.129117         0.147746         2.364939
 H         0.919612         0.161607        -0.341354
 H        -1.918018         1.662322        -0.294812
 H        -2.459245        -0.110778         0.322019
 H        -0.775634         3.025392         0.701086
 H        -0.185144         2.714283         2.399689
 H        -1.608460         2.240481         4.399792
 H        -3.181802         1.340983         4.457877
 H        -2.310930        -0.110445         2.780407
 H         0.704256         0.764391         2.933200
 H         0.034519        -0.917735         2.298025
