19
Iteration:  1152charge 0 multiplicity 1
 O         0.910787         0.740060         0.300821
 C        -0.275631         1.004536         1.007096
 C        -1.703008         0.907299         0.414782
 C        -2.031196         1.531747         1.880719
 C        -0.719067         2.473144         1.491509
 O        -2.906112         2.275397         2.717125
 C        -2.188547         1.700159         3.866291
 C        -1.673151         0.582753         2.923694
 C        -0.216994         0.227310         2.329582
 H         0.770293         0.666752        -0.709436
 H        -1.923929         1.722328        -0.242171
 H        -2.077723        -0.056870         0.099323
 H        -1.018049         3.243237         0.887929
 H        -0.222870         2.988004         2.354566
 H        -1.400742         2.423215         4.197710
 H        -2.931349         1.415619         4.593016
 H        -2.254208        -0.285169         3.137098
 H         0.615133         0.538795         2.947753
 H         0.002423        -0.810243         2.290458
