19
Iteration:  1297
 O         0.877757         0.673556         0.182315
 C        -0.207516         1.029632         0.975010
 C        -1.801648         0.814026         0.521825
 C        -1.968442         1.660677         1.865201
 C        -0.744125         2.474540         1.556231
 O        -2.918332         2.276685         2.697009
 C        -2.263294         1.662548         3.833167
 C        -1.543547         0.640961         2.919429
 C        -0.201671         0.240839         2.331361
 H         1.609606         1.149801         0.628783
 H        -1.938304         1.582284        -0.283030
 H        -2.377893        -0.065908         0.168353
 H        -1.081792         3.200533         0.653579
 H        -0.287238         2.912701         2.457397
 H        -1.609944         2.438474         4.437632
 H        -3.172185         1.183008         4.501327
 H        -2.253150        -0.248892         2.906648
 H         0.676432         0.488335         3.003253
 H        -0.209998        -0.906701         2.227518
