19
Iteration:  1163
 O         0.858109         0.739826         0.326247
 C        -0.294765         1.012557         1.043525
 C        -1.706355         0.865772         0.384659
 C        -1.992917         1.646378         1.837142
 C        -0.698898         2.480469         1.520375
 O        -2.994129         2.287345         2.726814
 C        -2.147735         1.676989         3.845568
 C        -1.650206         0.519632         2.917892
 C        -0.177197         0.197866         2.384908
 H         0.609492         1.146014        -0.562420
 H        -1.780348         1.434823        -0.541598
 H        -2.095893        -0.132987         0.226241
 H        -0.911665         3.065378         0.696320
 H        -0.002257         2.903487         2.278009
 H        -1.288614         2.381862         4.050231
 H        -2.616884         1.557901         4.823869
 H        -2.376970        -0.255150         2.739275
 H         0.581946         0.681845         2.992129
 H         0.010946        -0.798301         2.053736
