19
Iteration:  2669charge 0 multiplicity 1
 O         0.728450         0.770943         0.003064
 C        -0.197295         0.995743         1.073956
 C        -1.762315         0.812737         0.534000
 C        -1.937005         1.669622         1.844213
 C        -0.612380         2.436493         1.465268
 O        -2.971402         2.237750         2.697752
 C        -2.297636         1.611169         3.838242
 C        -1.634990         0.593416         2.912766
 C        -0.137673         0.343639         2.584504
 H         1.604387         0.909514         0.386700
 H        -1.898748         1.363486        -0.487313
 H        -2.192946        -0.216223         0.730617
 H        -0.811393         3.058295         0.560061
 H         0.047436         2.873270         2.190519
 H        -1.544002         2.313271         4.223325
 H        -2.979049         1.188762         4.557170
 H        -2.184232        -0.368439         2.736390
 H         0.492002         1.056085         3.124759
 H         0.235777        -0.652438         2.525071
