19
Iteration:  4877charge 0 multiplicity 1
 O         0.788220         0.933112         0.124715
 C        -0.263963         0.896515         1.035545
 C        -1.770802         0.851524         0.634516
 C        -1.907560         1.655874         1.820841
 C        -0.611461         2.394030         1.562539
 O        -3.087989         2.148896         2.614376
 C        -2.185366         1.690119         3.791191
 C        -1.570102         0.688244         2.887143
 C        -0.165161         0.222297         2.445540
 H         1.347043         0.081397         0.085086
 H        -1.903640         1.430874        -0.343206
 H        -2.314228        -0.095651         0.636335
 H        -0.787757         3.363667         0.846287
 H         0.083329         2.745233         2.469883
 H        -1.651755         2.550198         4.029108
 H        -2.767674         1.254544         4.554792
 H        -2.258652        -0.128198         2.950350
 H         0.618044         0.757446         2.968500
 H         0.056643        -0.832478         2.643865
