19
Iteration:   453
 O         0.885844         0.585194         0.302619
 C        -0.269285         1.033841         1.033104
 C        -1.688107         1.002352         0.465541
 C        -1.897870         1.727531         1.910769
 C        -0.596102         2.472502         1.605041
 O        -2.879839         2.349438         2.621599
 C        -2.363217         1.496096         3.873443
 C        -1.693209         0.602709         2.823256
 C        -0.249597         0.207061         2.349475
 H         0.768798         1.118772        -0.486405
 H        -1.796941         1.724800        -0.344193
 H        -2.094721         0.004095         0.219247
 H        -0.979045         3.269373         0.857152
 H        -0.072029         2.954879         2.381436
 H        -1.737495         2.218724         4.370264
 H        -3.199512         1.144922         4.460233
 H        -2.410026        -0.207627         2.674186
 H         0.633058         0.442583         2.970589
 H        -0.172467        -0.913959         2.190366
