19
Iteration:  3833
 O         0.862470         0.631848         0.260712
 C        -0.286840         0.994607         1.048975
 C        -1.711026         0.899269         0.513745
 C        -2.003258         1.656331         1.822486
 C        -0.706986         2.522914         1.527611
 O        -3.014012         2.232899         2.646620
 C        -2.243056         1.626324         3.879016
 C        -1.565691         0.614978         2.896727
 C        -0.112151         0.300432         2.435145
 H         0.656198         1.071351        -0.548549
 H        -1.748646         1.468715        -0.466913
 H        -2.329147         0.033297         0.354176
 H        -0.716955         3.273480         0.822233
 H        -0.066509         2.814747         2.404540
 H        -1.557874         2.348575         4.283461
 H        -2.962622         1.160855         4.476146
 H        -2.177103        -0.261440         2.570445
 H         0.717563         0.929221         2.832227
 H         0.095755        -0.839997         2.081504
