19
Iteration:  2486
 O         0.840981         0.754018         0.176659
 C        -0.224874         1.022981         1.020132
 C        -1.883930         0.861988         0.542259
 C        -1.934787         1.692520         1.823383
 C        -0.595523         2.433280         1.732469
 O        -2.908245         2.231536         2.615932
 C        -2.272189         1.621665         3.797455
 C        -1.626664         0.620598         2.849252
 C        -0.118216         0.268441         2.391069
 H         0.536322         0.990285        -0.758889
 H        -2.142326         1.261663        -0.400132
 H        -2.401637        -0.087919         0.686605
 H        -0.764085         3.282606         1.003218
 H        -0.092304         2.513366         2.749027
 H        -1.664042         2.422047         4.242301
 H        -2.944494         1.144216         4.459664
 H        -2.252135        -0.245366         2.741217
 H         0.627791         0.744806         3.139433
 H        -0.006405        -0.831736         2.383119
