19
Iteration:   949charge 0 multiplicity 1
 O         0.862757         0.710060         0.204368
 C        -0.231651         0.930903         1.043898
 C        -1.724304         0.989146         0.495110
 C        -1.861554         1.784880         1.831373
 C        -0.521358         2.486606         1.567923
 O        -2.982549         2.197599         2.727464
 C        -2.318380         1.576393         3.881978
 C        -1.668586         0.658870         2.816061
 C        -0.294124         0.172676         2.420248
 H         0.630550         1.040137        -0.726115
 H        -1.758635         1.566637        -0.459466
 H        -2.161576        -0.044402         0.428500
 H        -0.641043         3.293195         0.686470
 H        -0.027486         3.013643         2.303590
 H        -1.704367         2.407655         4.354710
 H        -2.920454         1.014210         4.658481
 H        -2.503498        -0.104237         2.730680
 H         0.592663         0.234695         3.049676
 H        -0.207333        -0.920582         2.193600
