19
Iteration:  3328charge 0 multiplicity 1
 O         0.862326         0.678176         0.190321
 C        -0.249076         0.988074         0.985446
 C        -1.767839         0.840891         0.564493
 C        -1.879064         1.692851         1.869713
 C        -0.666396         2.517646         1.546920
 O        -2.978785         2.247761         2.669882
 C        -2.308583         1.579255         3.836421
 C        -1.587194         0.606000         2.916840
 C        -0.154440         0.311294         2.374027
 H         0.755353         1.072193        -0.648492
 H        -1.793584         1.561304        -0.267362
 H        -2.179818        -0.319323         0.457614
 H        -0.758246         3.412132         0.817562
 H        -0.225249         2.980826         2.450898
 H        -1.770359         2.298908         4.497705
 H        -2.991324         1.119372         4.481091
 H        -2.364399        -0.193629         2.837650
 H         0.522294         0.763185         3.071776
 H        -0.036520        -0.727937         2.214560
