19
Iteration:  3017charge 0 multiplicity 1
 O         0.845505         0.764235         0.178882
 C        -0.212286         1.017423         0.996638
 C        -1.682118         0.757869         0.518742
 C        -1.975744         1.637664         1.856277
 C        -0.664081         2.398405         1.545143
 O        -2.985399         2.346063         2.716040
 C        -2.342781         1.613663         3.846548
 C        -1.569075         0.665083         2.917834
 C        -0.160032         0.244026         2.399756
 H         0.640084         1.207519        -0.689293
 H        -1.972095         1.308196        -0.447371
 H        -1.957848        -0.249223         0.516471
 H        -0.909338         3.318112         0.930526
 H        -0.067712         2.812835         2.424341
 H        -1.722636         2.147467         4.500930
 H        -3.199920         1.148018         4.413975
 H        -2.078879        -0.304333         2.716824
 H         0.573240         0.868532         2.943681
 H         0.148086        -0.810931         2.205803
