19
Iteration:  1453charge 0 multiplicity 1
 O         0.837719         0.816802         0.028893
 C        -0.228691         1.017875         1.075270
 C        -1.755691         0.855259         0.553338
 C        -2.006619         1.641185         1.859378
 C        -0.690417         2.363581         1.623753
 O        -2.935315         2.282426         2.657240
 C        -2.325928         1.713669         3.808050
 C        -1.579438         0.614686         2.917671
 C        -0.161587         0.234954         2.403175
 H         1.490697         0.159262         0.449922
 H        -1.781984         1.427911        -0.370360
 H        -2.246017        -0.111992         0.539660
 H        -0.701409         3.023973         0.862832
 H        -0.151540         2.745959         2.501105
 H        -1.493339         2.321643         4.353197
 H        -3.195063         1.410774         4.450893
 H        -2.055982        -0.319345         2.828822
 H         0.679085         0.493943         3.087525
 H        -0.067770        -0.806115         2.223514
