19
Iteration:   163
 O         0.841300         0.795829         0.190899
 C        -0.083150         1.039406         1.139760
 C        -1.720740         1.065526         0.425855
 C        -1.918936         1.711256         1.810774
 C        -0.433469         2.367499         1.671206
 O        -2.968684         2.327210         2.727703
 C        -2.344274         1.596759         3.751280
 C        -1.788343         0.579649         2.813179
 C        -0.378237         0.072614         2.362897
 H         1.255859        -0.108169         0.307878
 H        -1.738755         1.638428        -0.481088
 H        -2.045815         0.036554         0.472958
 H        -0.457660         3.212804         0.958167
 H         0.118442         2.644816         2.604168
 H        -1.589989         2.243663         4.288494
 H        -3.094856         1.194826         4.426796
 H        -2.544684        -0.153764         2.588731
 H         0.346417         0.305019         3.235210
 H        -0.267280        -0.944872         2.001647
