19
Iteration:  3280
 O         0.904093         0.716066         0.168819
 C        -0.229317         0.942811         0.977510
 C        -1.719322         0.924925         0.508555
 C        -1.993638         1.681438         1.868105
 C        -0.655274         2.370338         1.579869
 O        -3.041498         2.177648         2.668598
 C        -2.203974         1.628374         3.853207
 C        -1.584064         0.691738         2.872636
 C        -0.235107         0.285926         2.457597
 H         0.892667         1.432637        -0.564131
 H        -1.934072         1.590323        -0.411635
 H        -2.285378        -0.066296         0.640271
 H        -0.733651         3.119022         0.810929
 H        -0.063422         2.930085         2.350775
 H        -1.583099         2.474668         4.310142
 H        -2.853537         1.195717         4.721254
 H        -2.314319        -0.159388         2.841624
 H         0.534694         0.905549         2.872402
 H        -0.072676        -0.819136         2.421637
