19
Iteration:  1212
 O         0.763552         0.796408         0.083889
 C        -0.229801         0.998333         0.971701
 C        -1.701448         0.909214         0.574087
 C        -1.957828         1.619331         1.904159
 C        -0.596773         2.302191         1.505489
 O        -2.957394         2.262351         2.654963
 C        -2.399517         1.713516         3.837824
 C        -1.592048         0.645927         3.037301
 C        -0.103429         0.205639         2.371553
 H         1.581549         1.208574         0.389117
 H        -1.918773         1.460555        -0.365131
 H        -2.181186        -0.094779         0.510712
 H        -0.843819         2.967691         0.572823
 H        -0.050234         2.761912         2.336976
 H        -1.782112         2.358027         4.373212
 H        -3.215337         1.441323         4.509102
 H        -2.129304        -0.335355         3.099423
 H         0.770749         0.661853         2.845791
 H        -0.223367        -0.880662         2.277287
