19
Iteration:  3957
 O         0.906378         0.706288         0.250483
 C        -0.239278         0.967273         1.097113
 C        -1.782396         0.939254         0.491626
 C        -1.967227         1.695256         1.821040
 C        -0.662538         2.407611         1.505954
 O        -2.990941         2.115909         2.668699
 C        -2.257370         1.641474         3.879571
 C        -1.599022         0.739044         2.862261
 C        -0.172667         0.281535         2.422285
 H         0.670240         1.056465        -0.607218
 H        -1.973644         1.591559        -0.351034
 H        -2.278583        -0.003648         0.349343
 H        -0.884565         3.055394         0.620731
 H        -0.022710         2.934779         2.128163
 H        -1.618317         2.345009         4.222772
 H        -2.939744         1.399497         4.722780
 H        -2.144322        -0.166363         2.746874
 H         0.764614         0.596932         2.980541
 H        -0.111930        -0.809745         2.330824
