19
Iteration:  2923charge 0 multiplicity 1
 O         0.930395         0.815589         0.147260
 C        -0.178866         0.998823         1.088678
 C        -1.779142         0.844493         0.508033
 C        -1.971883         1.639631         1.810837
 C        -0.701295         2.390061         1.486401
 O        -2.984115         2.214086         2.701389
 C        -2.293651         1.738550         3.890411
 C        -1.609508         0.608255         2.942844
 C        -0.178442         0.147712         2.388629
 H         0.841369         1.594040        -0.363300
 H        -1.705817         1.475126        -0.425019
 H        -2.361847        -0.205104         0.549367
 H        -0.928343         3.017573         0.632052
 H        -0.202595         3.002755         2.244152
 H        -1.499601         2.485923         4.320381
 H        -2.988978         1.612707         4.711318
 H        -2.300742        -0.224253         3.004528
 H         0.734113         0.446900         2.984537
 H        -0.231365        -0.877615         2.176563
