19
Iteration:  1459charge 0 multiplicity 1
 O         0.816547         0.804109         0.050594
 C        -0.177081         1.031573         1.128450
 C        -1.720857         0.892932         0.552555
 C        -1.989421         1.601108         1.869552
 C        -0.695445         2.375434         1.599920
 O        -2.998272         2.295535         2.644649
 C        -2.327710         1.759328         3.854812
 C        -1.578849         0.613123         2.943476
 C        -0.123017         0.188529         2.314803
 H         1.456065         0.146059         0.315781
 H        -1.788047         1.411245        -0.423427
 H        -2.119296        -0.143535         0.417706
 H        -0.865750         3.079535         0.639636
 H        -0.159766         2.663632         2.539672
 H        -1.576310         2.296245         4.352152
 H        -3.050299         1.340100         4.548759
 H        -2.356646        -0.242751         2.844669
 H         0.691889         0.489613         2.992090
 H        -0.040224        -0.948804         2.282180
