19
Iteration:  3467charge 0 multiplicity 1
 O         0.857339         0.745464         0.195826
 C        -0.237457         0.973561         1.023484
 C        -1.707865         0.837189         0.474300
 C        -1.981906         1.629691         1.836736
 C        -0.661054         2.485112         1.610480
 O        -2.977025         2.281708         2.720955
 C        -2.320788         1.625598         3.829058
 C        -1.596331         0.629497         2.884895
 C        -0.140440         0.262769         2.390750
 H         0.568424         0.995163        -0.718133
 H        -1.964133         1.358258        -0.485929
 H        -2.098714        -0.230653         0.425558
 H        -0.614060         3.148713         0.692550
 H         0.048492         2.809704         2.366236
 H        -1.596978         2.271228         4.405529
 H        -2.983844         1.323640         4.623105
 H        -2.274692        -0.264551         2.829124
 H         0.461020         0.962309         3.016519
 H         0.060061        -0.910336         2.386557
