19
Iteration:  3353charge 0 multiplicity 1
 O         0.883497         0.760269         0.158531
 C        -0.233734         0.994572         1.039720
 C        -1.766327         0.893477         0.484748
 C        -1.961492         1.665356         1.807262
 C        -0.612024         2.336028         1.525595
 O        -3.052347         2.279808         2.721275
 C        -2.299323         1.633066         3.885400
 C        -1.588739         0.645938         2.896098
 C        -0.113708         0.257500         2.418362
 H         0.703456         1.263159        -0.647678
 H        -1.880754         1.457757        -0.456486
 H        -2.090228        -0.110550         0.658153
 H        -0.658820         2.953836         0.651862
 H        -0.099289         2.921730         2.300922
 H        -1.744614         2.268467         4.472442
 H        -3.030157         1.171788         4.574329
 H        -2.210841        -0.219996         2.938830
 H         0.719838         0.670169         3.094718
 H        -0.162637        -0.909470         2.451806
