19
Iteration:  4449charge 0 multiplicity 1
 O         0.833325         0.730388         0.239642
 C        -0.239324         1.043826         1.083712
 C        -1.742878         0.818430         0.473337
 C        -1.996214         1.621731         1.856605
 C        -0.673241         2.450511         1.460320
 O        -2.895777         2.347656         2.673882
 C        -2.318536         1.546672         3.839391
 C        -1.602083         0.559256         2.895893
 C        -0.103731         0.333200         2.418612
 H         0.633612         1.252760        -0.523694
 H        -1.793283         1.469416        -0.430978
 H        -2.356259        -0.160063         0.653650
 H        -0.974724         3.188084         0.683879
 H        -0.252104         2.917527         2.338848
 H        -1.683930         2.267873         4.506916
 H        -3.132194         1.115056         4.400208
 H        -2.118372        -0.440699         2.845220
 H         0.686069         0.651462         3.112024
 H         0.047716        -0.773833         2.266906
