19
Iteration:  3493charge 0 multiplicity 1
 O         0.829175         0.672376         0.181507
 C        -0.194904         1.029490         1.068656
 C        -1.731787         0.939009         0.484690
 C        -1.920812         1.682379         1.853622
 C        -0.668691         2.439676         1.528982
 O        -3.021744         2.181459         2.656053
 C        -2.324655         1.590600         3.845344
 C        -1.554835         0.666850         2.933118
 C        -0.141277         0.276984         2.444752
 H         0.588748         1.190008        -0.649310
 H        -1.871686         1.586536        -0.366651
 H        -2.300929        -0.077235         0.448454
 H        -0.713351         3.109585         0.642787
 H         0.040250         2.863870         2.299088
 H        -1.597140         2.400693         4.335778
 H        -2.958851         1.296497         4.699201
 H        -2.250264        -0.182545         2.791278
 H         0.646831         0.583121         3.070688
 H        -0.118557        -0.719231         2.222946
