19
Iteration:   272
 O         0.862597         0.666837         0.151230
 C        -0.232995         0.886918         1.016946
 C        -1.710590         1.131957         0.473183
 C        -1.891253         1.759915         1.861984
 C        -0.486422         2.349674         1.685289
 O        -2.992916         2.336826         2.661035
 C        -2.417127         1.569053         3.774754
 C        -1.691631         0.581257         2.856517
 C        -0.249501         0.147060         2.483221
 H         1.449276         1.474673         0.118927
 H        -1.777149         1.875225        -0.320427
 H        -2.339464         0.288389         0.087884
 H        -0.599355         3.122658         0.915712
 H         0.222049         2.546016         2.550734
 H        -1.739867         2.297848         4.302520
 H        -3.219391         1.203566         4.416648
 H        -2.336161        -0.258466         2.623188
 H         0.742260         0.434314         2.974395
 H        -0.226554        -0.938073         2.312837
