19
Iteration:  1138
 O         0.981167         0.764136         0.222933
 C        -0.238048         1.053967         0.962478
 C        -1.820409         0.939815         0.472664
 C        -1.975888         1.579505         1.828649
 C        -0.735867         2.327693         1.585216
 O        -2.934570         2.285772         2.684325
 C        -2.246508         1.698287         3.860868
 C        -1.556804         0.620275         2.964697
 C        -0.249873         0.247854         2.387608
 H         0.635586         0.340205        -0.574994
 H        -1.914737         1.565517        -0.437824
 H        -2.287548        -0.061579         0.292132
 H        -0.883854         3.058615         0.791010
 H        -0.195511         2.756433         2.383978
 H        -1.664911         2.522616         4.548163
 H        -2.917036         1.234152         4.561870
 H        -2.217389        -0.244975         2.862980
 H         0.680195         0.473844         2.985727
 H        -0.152922        -0.827999         2.130558
