19
Iteration:  3473charge 0 multiplicity 1
 O         0.831929         0.741685         0.186880
 C        -0.234238         0.952460         1.020406
 C        -1.713078         0.833317         0.490540
 C        -2.021634         1.605979         1.819975
 C        -0.612109         2.500136         1.583206
 O        -2.991444         2.267790         2.701819
 C        -2.280908         1.639488         3.876423
 C        -1.594560         0.647064         2.858408
 C        -0.178727         0.270640         2.397401
 H         0.741509         0.961733        -0.798309
 H        -1.740065         1.566467        -0.346338
 H        -1.944503        -0.192929         0.445415
 H        -0.678909         3.232316         0.820181
 H         0.019672         2.932173         2.405200
 H        -1.654174         2.301664         4.481125
 H        -3.050504         1.047978         4.506454
 H        -2.250769        -0.199693         2.935070
 H         0.551930         0.763314         3.071028
 H         0.117463        -0.736185         2.506886
