19
Iteration:    77charge 0 multiplicity 1
 O         0.973534         0.743531         0.278303
 C        -0.191772         0.890162         1.106028
 C        -1.724706         1.070122         0.418010
 C        -1.919038         1.803632         1.799658
 C        -0.604128         2.409641         1.707406
 O        -2.853743         2.399832         2.736970
 C        -2.395419         1.574481         3.769661
 C        -1.754668         0.587387         2.783512
 C        -0.306364        -0.019377         2.359618
 H         0.706975         0.953480        -0.685773
 H        -1.567018         1.734181        -0.417284
 H        -2.269130         0.168300         0.161517
 H        -0.517905         3.186893         0.931376
 H        -0.103535         2.754963         2.659686
 H        -1.715651         2.048609         4.474476
 H        -3.261506         1.374392         4.387850
 H        -2.610382         0.004271         2.459054
 H         0.530866         0.004914         3.086446
 H        -0.406387        -1.093147         2.181200
