19
Iteration:  1482charge 0 multiplicity 1
 O         0.826187         0.847451         0.105534
 C        -0.298619         1.012088         1.039032
 C        -1.678161         0.875156         0.469592
 C        -1.949726         1.676431         1.864857
 C        -0.585268         2.466363         1.566186
 O        -3.039280         2.120142         2.660884
 C        -2.247869         1.749586         3.848191
 C        -1.560384         0.670602         2.968254
 C        -0.251380         0.166334         2.429812
 H         1.270898         0.058768         0.449693
 H        -1.814724         1.519363        -0.414759
 H        -2.206040        -0.084014         0.318959
 H        -0.744869         3.076191         0.595475
 H         0.065985         2.830687         2.358651
 H        -1.544991         2.470523         4.163475
 H        -2.941474         1.460437         4.647791
 H        -2.203710        -0.257470         2.953568
 H         0.684167         0.203464         3.033436
 H        -0.363929        -0.931965         2.198346
