19
Iteration:  4088charge 0 multiplicity 1
 O         0.845241         0.780809         0.215966
 C        -0.238370         0.983522         1.077383
 C        -1.718143         0.868574         0.492568
 C        -2.025342         1.577972         1.800712
 C        -0.626482         2.467567         1.553015
 O        -3.011630         2.186375         2.692886
 C        -2.185271         1.770177         3.852751
 C        -1.623067         0.604064         2.872088
 C        -0.172903         0.211242         2.436578
 H         0.632271         1.101586        -0.616560
 H        -1.672122         1.381221        -0.414740
 H        -2.166219        -0.113961         0.304731
 H        -0.786816         3.045370         0.654626
 H        -0.082823         2.960311         2.215659
 H        -1.504784         2.629896         4.205950
 H        -2.924802         1.210831         4.467479
 H        -2.333092        -0.197815         3.014659
 H         0.595844         0.775017         3.085317
 H        -0.080996        -0.849867         2.328126
