19
Iteration:  2996
 O         0.862398         0.762584         0.195764
 C        -0.244609         0.952482         1.030587
 C        -1.755040         0.891195         0.476202
 C        -1.945911         1.689226         1.850814
 C        -0.618738         2.412867         1.438219
 O        -3.005859         2.217020         2.687350
 C        -2.366925         1.590489         3.966684
 C        -1.560514         0.665659         2.913186
 C        -0.108018         0.297265         2.445754
 H         0.599771         1.034122        -0.720963
 H        -1.655543         1.321092        -0.485148
 H        -2.278838         0.005894         0.476563
 H        -0.616421         3.115553         0.575634
 H         0.004944         3.003374         2.160518
 H        -1.805821         2.337429         4.492461
 H        -3.079731         1.005493         4.605896
 H        -2.288707        -0.184367         2.745398
 H         0.731968         0.690287         3.097145
 H        -0.177834        -0.774877         2.273123
