19
Iteration:  4247charge 0 multiplicity 1
 O         0.808862         0.820665         0.161706
 C        -0.271605         0.982214         1.066492
 C        -1.727299         0.806611         0.600557
 C        -1.997525         1.679639         1.832773
 C        -0.579781         2.407480         1.611093
 O        -3.030020         2.204506         2.540811
 C        -2.189527         1.692567         3.874250
 C        -1.569591         0.678967         2.884308
 C        -0.161601         0.163609         2.447406
 H         0.628157         1.447628        -0.490662
 H        -2.053825         1.366915        -0.376896
 H        -2.081069        -0.172435         0.487009
 H        -0.722496         3.054169         0.824227
 H        -0.062946         2.870859         2.459027
 H        -1.544592         2.514591         4.083336
 H        -2.963309         1.333105         4.589233
 H        -2.364124        -0.103571         2.837179
 H         0.691407         0.528299         2.971489
 H        -0.085361        -0.959084         2.374565
