19
Iteration:  1627charge 0 multiplicity 1
 O         0.871288         0.801098         0.118324
 C        -0.245584         1.051945         1.022454
 C        -1.712149         0.899055         0.480691
 C        -1.994781         1.640360         1.779175
 C        -0.676717         2.440753         1.595518
 O        -3.048798         2.225987         2.706079
 C        -2.138720         1.666505         3.928064
 C        -1.643029         0.595588         2.881752
 C        -0.203304         0.244513         2.382599
 H         1.126741        -0.128321         0.257000
 H        -1.855344         1.220374        -0.566297
 H        -2.132224        -0.077570         0.680798
 H        -0.814084         3.122424         0.809790
 H        -0.205223         2.865168         2.449262
 H        -1.504521         2.447997         4.240141
 H        -2.782223         1.341553         4.728893
 H        -2.286381        -0.250485         2.951630
 H         0.662840         0.592411         3.062604
 H        -0.062187        -0.804322         2.148747
