19
Iteration:  3711charge 0 multiplicity 1
 O         0.843760         0.714728         0.285350
 C        -0.220379         1.062662         1.098649
 C        -1.839297         0.837699         0.448875
 C        -1.932295         1.658135         1.815121
 C        -0.721349         2.442084         1.509664
 O        -3.015793         2.256421         2.660246
 C        -2.197026         1.637836         3.844541
 C        -1.611439         0.637204         2.861510
 C        -0.092185         0.244400         2.414986
 H         0.877122         1.369181        -0.484542
 H        -2.023399         1.290567        -0.498715
 H        -2.218929        -0.227192         0.602400
 H        -0.556829         3.190752         0.783427
 H        -0.253101         2.836813         2.437073
 H        -1.404403         2.299509         4.119418
 H        -2.811457         1.317137         4.586896
 H        -2.267692        -0.221179         2.709051
 H         0.722827         0.574547         3.105851
 H        -0.007422        -0.990208         2.394393
