19
Iteration:  4497charge 0 multiplicity 1
 O         0.834767         0.748803         0.179310
 C        -0.232232         1.008034         1.047538
 C        -1.825017         0.939118         0.499911
 C        -1.963189         1.658410         1.839321
 C        -0.553855         2.357475         1.581949
 O        -3.104356         2.120101         2.656703
 C        -2.292119         1.705473         3.809071
 C        -1.535906         0.688501         2.928607
 C        -0.093474         0.251488         2.453556
 H         0.651616         1.169474        -0.704307
 H        -1.836553         1.720092        -0.319691
 H        -2.243389        -0.024533         0.435574
 H        -0.523932         3.154656         0.690139
 H         0.048547         2.725801         2.464656
 H        -1.645860         2.489604         4.115913
 H        -2.938822         1.259877         4.582407
 H        -2.121317        -0.229293         2.795669
 H         0.813035         0.612150         3.008540
 H        -0.006312        -0.869242         2.440532
