19
Iteration:   657
 O         0.804295         0.836531         0.184094
 C        -0.260942         0.923761         1.031713
 C        -1.788916         0.929744         0.482065
 C        -1.927382         1.689279         1.783736
 C        -0.433487         2.358990         1.561191
 O        -2.902614         2.272042         2.664291
 C        -2.307630         1.652872         3.819861
 C        -1.728299         0.534707         2.870983
 C        -0.279191         0.185657         2.470744
 H         1.547435         1.259712         0.713415
 H        -1.968304         1.615324        -0.354136
 H        -2.388802         0.037443         0.313394
 H        -0.401340         3.015130         0.730337
 H         0.234367         2.911667         2.473303
 H        -1.497826         2.276447         4.321456
 H        -3.098204         1.443837         4.590863
 H        -2.551545        -0.162339         2.710743
 H         0.445913         0.712831         3.021576
 H        -0.101939        -0.931939         2.456299
