19
Iteration:  4427
 O         0.932077         0.745325         0.277491
 C        -0.298065         0.960230         0.961381
 C        -1.844308         0.888955         0.457989
 C        -1.956348         1.655030         1.830659
 C        -0.668813         2.360384         1.463379
 O        -2.944571         2.254101         2.752388
 C        -2.261287         1.583523         3.832909
 C        -1.611891         0.636193         2.853272
 C        -0.156436         0.336523         2.474308
 H         1.002356         1.439659        -0.462396
 H        -2.005711         1.619609        -0.363921
 H        -2.279524        -0.217832         0.536806
 H        -0.831214         3.068936         0.567874
 H        -0.245708         2.759146         2.380320
 H        -1.519240         2.364092         4.238284
 H        -2.933669         1.112007         4.523063
 H        -2.304541        -0.237557         2.701473
 H         0.565515         0.952379         3.038008
 H         0.258803        -0.687499         2.681273
