19
Iteration:  1871charge 0 multiplicity 1
 O         0.814415         0.886254         0.068706
 C        -0.214578         1.005529         1.012296
 C        -1.694757         0.895692         0.505516
 C        -1.889313         1.700479         1.877542
 C        -0.545802         2.428709         1.564825
 O        -3.079476         2.201154         2.723708
 C        -2.327118         1.609622         3.841592
 C        -1.632338         0.572395         2.921414
 C        -0.163499         0.264476         2.449202
 H         0.759867        -0.042899        -0.168778
 H        -1.902786         1.470786        -0.425593
 H        -2.093234        -0.178134         0.531067
 H        -0.612973         3.027821         0.654254
 H         0.071872         2.761682         2.377246
 H        -1.794343         2.479287         4.180328
 H        -2.878622         1.156760         4.693635
 H        -2.254680        -0.355646         2.733333
 H         0.659561         0.671953         2.980452
 H        -0.167769        -0.883301         2.497372
