19
Iteration:  4236charge 0 multiplicity 1
 O         0.834824         0.813098         0.126513
 C        -0.209994         1.038624         1.067264
 C        -1.704301         0.785743         0.567444
 C        -1.929357         1.585080         1.834578
 C        -0.637663         2.383828         1.616989
 O        -3.029423         2.223473         2.625590
 C        -2.224972         1.760373         3.828190
 C        -1.626284         0.663916         2.932363
 C        -0.236023         0.216225         2.377736
 H         0.756146         1.388116        -0.675427
 H        -1.670043         1.229927        -0.510237
 H        -1.969971        -0.212132         0.682654
 H        -0.734168         3.127954         0.897741
 H         0.023342         2.736693         2.416848
 H        -1.737645         2.580340         4.316725
 H        -2.800701         1.330161         4.708997
 H        -2.268844        -0.240834         3.030633
 H         0.586863         0.389167         3.028117
 H        -0.310788        -0.900403         2.175405
