19
Iteration:  3568charge 0 multiplicity 1
 O         0.887046         0.831130         0.239986
 C        -0.245927         1.002652         1.061452
 C        -1.798114         0.810771         0.564826
 C        -2.003807         1.612674         1.833649
 C        -0.654049         2.399209         1.547978
 O        -2.948906         2.275794         2.634045
 C        -2.188025         1.632896         3.841060
 C        -1.649891         0.608797         2.857872
 C        -0.205056         0.243311         2.412484
 H         0.864703         1.469608        -0.475542
 H        -1.819260         1.395299        -0.257315
 H        -2.161172        -0.228340         0.482480
 H        -0.849481         2.978492         0.620921
 H        -0.137470         3.072321         2.210714
 H        -1.338623         2.260243         4.120848
 H        -2.843366         1.435716         4.613266
 H        -2.321885        -0.254632         2.772995
 H         0.689772         0.499545         2.922156
 H        -0.215507        -0.844610         2.379613
