19
Iteration:  1490
 O         0.837535         0.851171         0.132377
 C        -0.203488         1.009022         1.084663
 C        -1.783488         0.930916         0.508621
 C        -1.953276         1.673126         1.842785
 C        -0.626051         2.388486         1.525445
 O        -3.029334         2.093252         2.666306
 C        -2.232538         1.736027         3.817137
 C        -1.550739         0.667966         2.949993
 C        -0.262835         0.199803         2.408106
 H         1.371522         0.044111         0.337304
 H        -1.786245         1.430181        -0.481708
 H        -2.194578        -0.098133         0.417779
 H        -0.555265         3.302007         0.698128
 H         0.127364         2.767369         2.392848
 H        -1.460015         2.469999         4.179142
 H        -2.845432         1.443574         4.662456
 H        -2.454327        -0.025389         2.886911
 H         0.617174         0.435956         2.970773
 H        -0.468233        -0.922255         2.314835
