19
Iteration:   769charge 0 multiplicity 1
 O         0.675147         0.741855         0.097470
 C        -0.176213         1.048792         1.132793
 C        -1.631718         0.896450         0.519415
 C        -1.866210         1.660414         1.874185
 C        -0.558975         2.435200         1.588178
 O        -2.907793         2.441467         2.645209
 C        -2.396823         1.549455         3.806726
 C        -1.669328         0.467140         2.927093
 C        -0.240406         0.192248         2.366926
 H         1.561437         0.846163         0.338210
 H        -1.717951         1.473014        -0.351987
 H        -2.022031        -0.055573         0.294321
 H        -0.665550         3.141876         0.692136
 H        -0.245530         3.063340         2.572704
 H        -1.772295         2.323618         4.396018
 H        -3.081111         1.126947         4.569214
 H        -2.280109        -0.301505         2.533757
 H         0.512872         0.559591         3.044322
 H        -0.156216        -0.884275         2.242546
