19
Iteration:   213
 O         0.998014         0.758299         0.300641
 C        -0.223360         0.945352         1.063581
 C        -1.704367         1.048396         0.361779
 C        -1.964989         1.673856         1.809113
 C        -0.578839         2.352510         1.720393
 O        -2.901428         2.348988         2.708798
 C        -2.349452         1.730530         3.919450
 C        -1.744707         0.537985         2.774205
 C        -0.314418         0.025040         2.280931
 H         0.785124         0.816071        -0.601952
 H        -1.642171         1.888560        -0.390372
 H        -2.207677         0.066540         0.286611
 H        -0.695242         3.165583         0.881368
 H         0.059807         2.767383         2.445813
 H        -1.890419         2.561945         4.474515
 H        -3.208347         1.446361         4.612153
 H        -2.455668        -0.323081         2.751235
 H         0.395742         0.387000         3.006077
 H        -0.176704        -1.038490         2.037792
