19
Iteration:   300charge 0 multiplicity 1
 O         0.825786         0.698200         0.183823
 C        -0.176797         0.968020         1.062379
 C        -1.684664         0.941302         0.447661
 C        -1.892072         1.756070         1.818466
 C        -0.534883         2.453616         1.653023
 O        -2.847010         2.389697         2.702013
 C        -2.425286         1.564312         3.859902
 C        -1.778532         0.545816         2.812490
 C        -0.295989         0.142129         2.390884
 H         1.611209         1.184070         0.408168
 H        -1.832440         1.649797        -0.403119
 H        -2.093060        -0.065408         0.297074
 H        -0.610656         3.212174         0.818694
 H        -0.079949         2.617205         2.570551
 H        -1.748135         2.134147         4.496459
 H        -3.340924         1.255713         4.436245
 H        -2.568370        -0.195429         2.545673
 H         0.580299         0.450353         2.898034
 H        -0.178688        -0.883322         2.022892
