19
Iteration:  1169charge 0 multiplicity 1
 O         0.832949         0.747827         0.299480
 C        -0.274059         1.047737         1.080417
 C        -1.729567         0.855746         0.429953
 C        -1.966356         1.703634         1.800886
 C        -0.694694         2.413617         1.541945
 O        -3.026057         2.268123         2.739468
 C        -2.123867         1.672736         3.823190
 C        -1.613824         0.529163         2.866947
 C        -0.212106         0.204615         2.419294
 H         0.863637         1.303277        -0.535211
 H        -1.698512         1.314588        -0.589580
 H        -2.187105        -0.162818         0.373993
 H        -0.788391         3.013900         0.543702
 H        -0.030875         2.864030         2.266022
 H        -1.248394         2.362936         4.030315
 H        -2.634184         1.519891         4.789441
 H        -2.406155        -0.224777         2.666275
 H         0.610687         0.714803         2.973889
 H        -0.083470        -0.871553         2.120600
