19
Iteration:  2703
 O         0.714701         0.789311         0.031707
 C        -0.227058         1.030919         1.072039
 C        -1.730676         0.795378         0.559601
 C        -1.951195         1.625254         1.805486
 C        -0.728052         2.453323         1.622331
 O        -2.998361         2.205273         2.646890
 C        -2.310615         1.749624         3.807472
 C        -1.516969         0.681200         2.947999
 C        -0.067132         0.204400         2.448880
 H         1.588765         0.643779         0.342937
 H        -1.841300         1.096111        -0.529686
 H        -2.267347        -0.230299         0.550045
 H        -0.745629         3.176512         0.812975
 H        -0.131004         2.826451         2.442889
 H        -1.577935         2.475936         4.217099
 H        -2.873275         1.381270         4.613238
 H        -2.209763        -0.154941         3.027748
 H         0.828864         0.422921         3.072108
 H         0.076884        -0.809056         2.221241
