19
Iteration:  2597
 O         0.843462         0.858402         0.092196
 C        -0.176196         0.991062         1.015882
 C        -1.726963         0.905237         0.526306
 C        -1.946484         1.614930         1.876766
 C        -0.649681         2.375389         1.534285
 O        -3.034133         2.221030         2.660116
 C        -2.158765         1.742921         3.808158
 C        -1.648000         0.509265         2.925893
 C        -0.199448         0.189236         2.546205
 H         0.288780         0.954172        -0.662542
 H        -1.733136         1.433870        -0.355051
 H        -2.070221        -0.113384         0.421966
 H        -1.028132         3.004803         0.686072
 H        -0.167006         3.137002         2.287977
 H        -1.360544         2.503580         4.044819
 H        -2.829387         1.525183         4.644627
 H        -2.400025        -0.259268         2.945806
 H         0.444583         0.725580         3.337929
 H        -0.084463        -0.902752         2.610103
