19
Iteration:  2489charge 0 multiplicity 1
 O         0.839463         0.740372         0.167266
 C        -0.234738         1.013544         1.027480
 C        -1.871311         0.865763         0.508890
 C        -1.933269         1.685956         1.798971
 C        -0.609037         2.427057         1.720520
 O        -2.927915         2.250335         2.632702
 C        -2.254770         1.607087         3.794536
 C        -1.613761         0.610497         2.870550
 C        -0.118562         0.282828         2.412602
 H         0.558713         1.075347        -0.672935
 H        -2.104368         1.305866        -0.434280
 H        -2.463913        -0.028435         0.715947
 H        -0.694947         3.331238         1.099455
 H        -0.106569         2.480842         2.726164
 H        -1.676706         2.373698         4.239520
 H        -2.992304         1.208504         4.520141
 H        -2.215515        -0.285610         2.688060
 H         0.591407         0.771390         3.106518
 H         0.090141        -0.778193         2.407643
