19
Iteration:  3451charge 0 multiplicity 1
 O         0.870202         0.787452         0.214927
 C        -0.230524         1.007057         1.060302
 C        -1.812059         0.865047         0.550595
 C        -1.969095         1.684148         1.848243
 C        -0.635635         2.381509         1.493898
 O        -2.962537         2.265285         2.652748
 C        -2.258540         1.635522         3.827235
 C        -1.627592         0.547082         2.876530
 C        -0.143610         0.290434         2.455550
 H         0.781508         1.045506        -0.682800
 H        -1.757472         1.475431        -0.377486
 H        -2.235005        -0.104246         0.657659
 H        -0.964846         3.141478         0.848333
 H        -0.228653         2.901295         2.378169
 H        -1.522525         2.290597         4.269652
 H        -3.000057         1.299221         4.606406
 H        -2.285187        -0.283716         2.693712
 H         0.787969         0.428000         2.989163
 H        -0.032377        -0.747240         2.191250
