19
Iteration:  3755
 O         0.872991         0.753870         0.177964
 C        -0.209644         1.055284         0.988667
 C        -1.788465         0.827924         0.519274
 C        -1.973412         1.606209         1.806239
 C        -0.627521         2.431219         1.529233
 O        -2.997632         2.210477         2.637237
 C        -2.295700         1.741391         3.891812
 C        -1.601647         0.595458         3.013911
 C        -0.189769         0.202320         2.414432
 H         1.037621         1.562201        -0.414655
 H        -1.814892         1.611521        -0.211964
 H        -2.193667        -0.196363         0.318755
 H        -0.689132         3.109879         0.736045
 H        -0.195719         2.964475         2.394937
 H        -1.636179         2.563134         4.155101
 H        -3.000622         1.603498         4.627481
 H        -2.269560        -0.302849         2.965138
 H         0.752560         0.362468         3.026296
 H         0.174232        -1.012527         2.199566
