19
Iteration:  1844
 O         0.827305         0.858269         0.174218
 C        -0.231735         1.051125         1.071303
 C        -1.834151         0.968612         0.480721
 C        -1.929453         1.562488         1.839990
 C        -0.658442         2.467568         1.696209
 O        -2.983870         2.123540         2.602913
 C        -2.234456         1.695556         3.763137
 C        -1.519089         0.614622         2.956318
 C        -0.169774         0.159597         2.381964
 H         0.606414        -0.028951        -0.156474
 H        -1.965226         1.668078        -0.331326
 H        -2.427144         0.123223         0.310955
 H        -0.914559         3.172105         0.862237
 H         0.060217         2.945179         2.450407
 H        -1.617088         2.622579         4.061357
 H        -2.859921         1.370610         4.632390
 H        -2.081270        -0.294779         3.045123
 H         0.777880         0.577658         2.827124
 H        -0.207467        -0.879596         2.388504
