19
Iteration:  3125charge 0 multiplicity 1
 O         0.799477         0.841056         0.163544
 C        -0.208174         0.984907         1.056429
 C        -1.753982         0.838449         0.535774
 C        -1.951137         1.637579         1.816394
 C        -0.630836         2.366050         1.529684
 O        -2.936719         2.245026         2.684159
 C        -2.306738         1.652433         3.832962
 C        -1.595776         0.615291         2.829742
 C        -0.170347         0.263444         2.524556
 H         0.558306         1.173863        -0.678787
 H        -1.784292         1.471509        -0.435816
 H        -2.220256        -0.115973         0.432391
 H        -0.800906         3.076544         0.755409
 H        -0.026960         2.717153         2.333591
 H        -1.721422         2.413262         4.319769
 H        -2.847946         1.046797         4.594282
 H        -2.306130        -0.167061         2.862643
 H         0.530341         0.691971         3.102681
 H         0.159704        -0.763698         2.447776
