19
Iteration:  1218
 O         0.723879         0.779662         0.038532
 C        -0.221249         0.963767         1.047500
 C        -1.676890         0.902411         0.581998
 C        -1.965062         1.543755         1.891933
 C        -0.619497         2.347122         1.529852
 O        -2.941401         2.298020         2.643274
 C        -2.430342         1.732856         3.828729
 C        -1.572381         0.608167         3.025118
 C        -0.104847         0.263814         2.357610
 H         1.479626         1.064898         0.555188
 H        -1.895481         1.600470        -0.225479
 H        -1.994981        -0.113128         0.340405
 H        -0.818291         3.065353         0.771615
 H         0.077561         2.888713         2.206996
 H        -1.742374         2.500295         4.421210
 H        -3.194424         1.219781         4.514156
 H        -2.228242        -0.267081         3.063753
 H         0.826813         0.513209         2.918438
 H        -0.013868        -0.839364         2.166097
