19
Iteration:   790charge 0 multiplicity 1
 O         0.817126         0.698220         0.145524
 C        -0.234027         0.995741         1.076811
 C        -1.713344         0.972303         0.550383
 C        -1.953683         1.736045         1.859160
 C        -0.548059         2.485291         1.535935
 O        -2.943057         2.250387         2.700651
 C        -2.330270         1.592876         3.831082
 C        -1.680911         0.673949         2.789418
 C        -0.258568         0.128361         2.412275
 H         1.670031         1.157416         0.452636
 H        -1.727828         1.322501        -0.464855
 H        -2.217824         0.017120         0.572440
 H        -0.578997         3.203505         0.780165
 H         0.127387         2.931532         2.406049
 H        -1.599572         2.214450         4.521758
 H        -3.028758         1.073814         4.544131
 H        -2.381458        -0.129504         2.589932
 H         0.647585         0.229393         3.014189
 H        -0.335747        -0.991628         2.181552
