19
Iteration:  3263
 O         0.860231         0.759391         0.222017
 C        -0.222734         1.083824         1.045601
 C        -1.798975         0.803919         0.495796
 C        -1.944827         1.601638         1.831189
 C        -0.619641         2.435437         1.530503
 O        -3.021923         2.246224         2.694087
 C        -2.269886         1.722848         3.849487
 C        -1.633676         0.585007         2.937964
 C        -0.149242         0.217236         2.354550
 H         0.896738         1.481494        -0.480216
 H        -1.862139         1.449787        -0.339967
 H        -2.245565        -0.241792         0.454008
 H        -0.676682         3.275296         0.739240
 H         0.010859         2.717907         2.377244
 H        -1.543986         2.409764         4.295004
 H        -2.951685         1.425631         4.589363
 H        -2.185382        -0.347143         2.787206
 H         0.760901         0.413566         3.014379
 H        -0.012459        -0.856230         2.170542
