19
Iteration:   492charge 0 multiplicity 1
 O         0.838092         0.696069         0.168761
 C        -0.262613         0.848100         1.052583
 C        -1.719495         1.040521         0.477505
 C        -1.892865         1.771236         1.832462
 C        -0.513815         2.359811         1.695198
 O        -3.057765         2.197318         2.569688
 C        -2.241694         1.636665         3.870912
 C        -1.655264         0.691714         2.825244
 C        -0.285696         0.183794         2.469665
 H         1.186845         1.645208         0.035812
 H        -1.733493         1.581908        -0.487133
 H        -2.434410         0.221849         0.266269
 H        -0.480295         3.185185         0.989717
 H         0.308284         2.697599         2.494802
 H        -1.573940         2.402993         4.322031
 H        -2.788922         1.251110         4.776640
 H        -2.403561        -0.042599         2.474307
 H         0.541099         0.499463         3.087111
 H        -0.315439        -0.909304         2.340470
