19
Iteration:  4494
 O         0.836153         0.755613         0.162467
 C        -0.208228         0.978204         1.043280
 C        -1.821713         0.953856         0.519010
 C        -1.939983         1.673874         1.810070
 C        -0.561961         2.365276         1.574523
 O        -3.116165         2.125038         2.650738
 C        -2.309533         1.684126         3.831401
 C        -1.548968         0.684909         2.943452
 C        -0.097749         0.264801         2.458380
 H         0.658640         1.127327        -0.669012
 H        -1.720383         1.676094        -0.358581
 H        -2.271488        -0.133682         0.518101
 H        -0.523535         3.149915         0.731805
 H         0.018405         2.698770         2.390276
 H        -1.683047         2.560645         4.276163
 H        -2.840585         1.322752         4.674837
 H        -2.155580        -0.260512         2.795216
 H         0.810429         0.600482         2.972397
 H        -0.021633        -0.878547         2.299997
