19
Iteration:  3743charge 0 multiplicity 1
 O         0.856122         0.775159         0.201801
 C        -0.261837         0.990625         1.023548
 C        -1.705656         0.901550         0.451269
 C        -1.943239         1.614447         1.876650
 C        -0.628945         2.372968         1.512739
 O        -3.073580         2.191319         2.640683
 C        -2.215830         1.727862         3.865314
 C        -1.614397         0.621331         2.972006
 C        -0.179358         0.230997         2.458267
 H         1.079015         1.451417        -0.397379
 H        -1.999526         1.455264        -0.378826
 H        -2.197078        -0.112058         0.281619
 H        -0.785271         3.050220         0.711392
 H        -0.034534         2.789769         2.285261
 H        -1.408298         2.435754         4.094385
 H        -2.779124         1.502018         4.707424
 H        -2.383177        -0.160901         2.857480
 H         0.626453         0.779490         2.936559
 H        -0.111762        -0.959074         2.310699
