19
Iteration:  1513
 O         0.929046         0.882604         0.219451
 C        -0.284814         0.978162         1.067807
 C        -1.903737         0.843132         0.464796
 C        -2.019362         1.684936         1.836354
 C        -0.630912         2.383077         1.592710
 O        -3.035716         2.270527         2.675642
 C        -2.192266         1.704549         3.809062
 C        -1.551946         0.555614         2.822170
 C        -0.112040         0.211357         2.430911
 H         1.022019        -0.107044         0.186980
 H        -2.064651         1.440625        -0.454311
 H        -2.596476        -0.021930         0.388992
 H        -0.674574         3.116885         0.595795
 H         0.123020         2.854082         2.373493
 H        -1.349239         2.253935         4.168441
 H        -2.837436         1.434665         4.649070
 H        -2.296431        -0.300881         2.862064
 H         0.629937         0.695075         3.042890
 H         0.029493        -0.917169         2.380501
