19
Iteration:  4165
 O         0.873522         0.640452         0.204308
 C        -0.190841         1.037868         1.053386
 C        -1.793857         0.871267         0.503275
 C        -1.988373         1.701673         1.821154
 C        -0.649763         2.426233         1.498290
 O        -3.039416         2.269196         2.696760
 C        -2.215501         1.581514         3.847837
 C        -1.595608         0.603431         2.850183
 C        -0.152907         0.316005         2.438374
 H         1.021411         1.406309        -0.419668
 H        -1.903801         1.235009        -0.458291
 H        -2.284081        -0.136556         0.709063
 H        -0.908896         3.141570         0.676523
 H        -0.156913         2.971968         2.232348
 H        -1.642337         2.350947         4.420815
 H        -2.878134         1.189149         4.691329
 H        -2.323847        -0.188690         2.777267
 H         0.483545         0.920947         3.183215
 H         0.229164        -0.688646         2.421258
