19
Iteration:  2899
 O         0.876447         0.882418         0.281772
 C        -0.331402         0.977671         1.014537
 C        -1.841032         0.778034         0.598506
 C        -1.911172         1.635850         1.832540
 C        -0.599893         2.373292         1.556248
 O        -2.994895         2.270432         2.600528
 C        -2.224527         1.664170         3.804574
 C        -1.513337         0.587096         2.876140
 C        -0.234768         0.228463         2.355360
 H         0.778366         1.584005        -0.413777
 H        -2.202699         1.316944        -0.249377
 H        -2.133138        -0.302528         0.814460
 H        -0.691733         3.025693         0.699532
 H         0.052967         2.775544         2.346019
 H        -1.473491         2.451401         4.185093
 H        -2.909466         1.509272         4.706680
 H        -2.164574        -0.280983         2.954314
 H         0.649772         0.586215         3.012018
 H        -0.197458        -0.827633         2.174080
