19
Iteration:  4365charge 0 multiplicity 1
 O         0.861063         0.793901         0.125717
 C        -0.222241         1.028454         1.051203
 C        -1.739836         0.834084         0.523955
 C        -2.004739         1.555333         1.859304
 C        -0.580226         2.348140         1.651954
 O        -3.031688         2.220847         2.606223
 C        -2.267989         1.790717         3.840729
 C        -1.597583         0.647421         2.990767
 C        -0.142521         0.220590         2.382247
 H         0.669764         1.279906        -0.735438
 H        -1.933640         1.423411        -0.439911
 H        -2.113393        -0.107784         0.168662
 H        -0.820124         3.244790         0.843158
 H        -0.245779         2.647405         2.632665
 H        -1.650442         2.651557         4.132191
 H        -2.955193         1.293927         4.653243
 H        -2.325413        -0.194390         3.106245
 H         0.736929         0.581020         2.969906
 H        -0.029442        -0.936604         2.159997
