19
Iteration:  4368
 O         0.868198         0.777626         0.120349
 C        -0.248419         1.028865         1.058144
 C        -1.735643         0.819398         0.505734
 C        -2.003625         1.562163         1.873203
 C        -0.611574         2.404382         1.654616
 O        -3.030375         2.214068         2.597791
 C        -2.255260         1.773229         3.816930
 C        -1.587166         0.657987         3.001033
 C        -0.133753         0.202931         2.379614
 H         0.674475         1.322071        -0.708279
 H        -1.810040         1.380622        -0.455514
 H        -2.148350        -0.086810         0.192213
 H        -0.788201         3.182627         1.017447
 H        -0.184995         2.731827         2.625775
 H        -1.618508         2.663224         4.197302
 H        -2.965244         1.321487         4.689791
 H        -2.268274        -0.170106         3.119051
 H         0.724381         0.474084         2.980295
 H        -0.174073        -0.858391         2.181362
