19
Iteration:  4684charge 0 multiplicity 1
 O         0.844250         0.813859         0.211302
 C        -0.244440         1.027765         1.021678
 C        -1.688240         0.721141         0.477184
 C        -1.996468         1.616946         1.766013
 C        -0.723845         2.342608         1.532266
 O        -2.882070         2.358607         2.754000
 C        -2.333611         1.671975         3.864300
 C        -1.662482         0.574505         2.914064
 C        -0.093075         0.257818         2.357734
 H         0.755002         1.558058        -0.504154
 H        -1.865823         1.447651        -0.393926
 H        -2.048521        -0.264635         0.627816
 H        -0.888200         3.144142         0.819883
 H        -0.421744         2.785378         2.381146
 H        -1.539744         2.146500         4.447253
 H        -3.163166         1.361350         4.532527
 H        -2.307468        -0.336618         2.842462
 H         0.746372         0.844642         2.928907
 H         0.187131        -0.780761         2.476781
