19
Iteration:  1682
 O         0.967631         0.968579         0.135057
 C        -0.259217         1.015318         0.974792
 C        -1.893069         0.838698         0.486931
 C        -1.969818         1.563536         1.837336
 C        -0.656079         2.352459         1.528491
 O        -2.895428         2.293897         2.732711
 C        -2.333036         1.688674         3.852828
 C        -1.596178         0.559383         2.929985
 C        -0.190337         0.178864         2.490227
 H         0.980705         0.049720        -0.300759
 H        -1.934560         1.484565        -0.410506
 H        -2.206546        -0.116278         0.129564
 H        -0.879699         3.056634         0.795487
 H        -0.072448         2.803859         2.312546
 H        -1.650194         2.393919         4.162284
 H        -2.962335         1.409418         4.688798
 H        -2.318987        -0.221766         2.927193
 H         0.635098         0.680383         3.083943
 H        -0.029829        -0.874925         2.324195
