19
Iteration:    84
 O         0.913078         0.737603         0.272091
 C        -0.197224         0.887142         1.103994
 C        -1.663545         1.066468         0.437036
 C        -1.873885         1.800737         1.866746
 C        -0.560941         2.393213         1.713060
 O        -2.866747         2.367292         2.746613
 C        -2.407202         1.609414         3.761826
 C        -1.761960         0.608675         2.721582
 C        -0.349838        -0.036653         2.370925
 H         0.845728         1.232402        -0.622721
 H        -1.676681         1.691530        -0.496572
 H        -2.270919         0.188512         0.133829
 H        -0.463726         3.117243         0.765110
 H        -0.143850         2.901939         2.552803
 H        -1.622740         2.122753         4.379447
 H        -3.273370         1.124356         4.289280
 H        -2.614909        -0.043355         2.490984
 H         0.514394         0.362241         3.063571
 H        -0.312718        -1.104420         2.255671
