19
Iteration:  3135
 O         0.918081         0.801346         0.065111
 C        -0.288029         0.965215         1.061655
 C        -1.768514         0.823474         0.466306
 C        -1.980579         1.705497         1.803094
 C        -0.588858         2.403050         1.578775
 O        -2.994625         2.212850         2.706705
 C        -2.276502         1.615187         3.865817
 C        -1.624067         0.662417         2.910957
 C        -0.119523         0.270585         2.552631
 H         0.542468         1.182644        -0.708481
 H        -1.961015         1.276665        -0.549204
 H        -2.309442        -0.079722         0.464307
 H        -0.660479         3.070097         0.750162
 H        -0.067546         2.879609         2.348203
 H        -1.623504         2.214811         4.532318
 H        -3.257294         1.317984         4.369488
 H        -2.220673        -0.207361         2.781442
 H         0.522758         0.816237         3.108057
 H        -0.041759        -0.825466         2.487417
