19
Iteration:  1099
 O         0.693214         0.912873         0.024003
 C        -0.233753         0.973530         1.158998
 C        -1.688783         0.902248         0.522680
 C        -1.851723         1.759601         1.902574
 C        -0.510693         2.362171         1.549956
 O        -2.964770         2.205171         2.609351
 C        -2.309790         1.596911         3.817103
 C        -1.629412         0.638385         2.908130
 C        -0.217113         0.203626         2.513765
 H         0.965921        -0.077578        -0.045199
 H        -1.782043         1.331671        -0.461976
 H        -2.179045        -0.064825         0.541426
 H        -0.630546         2.992719         0.657719
 H         0.198739         2.762967         2.379149
 H        -1.747679         2.355425         4.224975
 H        -3.020328         1.159444         4.552056
 H        -2.444235        -0.085945         2.785800
 H         0.472074         0.590964         3.254953
 H        -0.254337        -0.861075         2.296273
