19
Iteration:  1597charge 0 multiplicity 1
 O         0.762881         0.816236         0.136180
 C        -0.290112         0.973938         0.977671
 C        -1.775670         1.010512         0.435763
 C        -1.867116         1.592698         1.792801
 C        -0.588503         2.431443         1.573385
 O        -3.040239         2.155273         2.663058
 C        -2.298034         1.706691         3.848113
 C        -1.559391         0.593462         2.997517
 C        -0.097751         0.247868         2.493334
 H         0.984549        -0.118382         0.070691
 H        -1.859428         1.744077        -0.430377
 H        -2.371258         0.065868         0.438759
 H        -0.710572         3.131900         0.802368
 H        -0.059471         2.764130         2.478675
 H        -1.662398         2.577679         4.304523
 H        -3.018456         1.439229         4.649849
 H        -2.121472        -0.359474         2.962210
 H         0.816233         0.611389         2.994845
 H         0.093668        -0.858239         2.314570
