19
Iteration:  2181
 O         0.838725         0.834024         0.198446
 C        -0.203704         1.037172         1.042915
 C        -1.850090         0.979455         0.536541
 C        -1.931673         1.619237         1.873902
 C        -0.606338         2.521529         1.481769
 O        -2.948047         2.110069         2.721666
 C        -2.303765         1.601057         3.840613
 C        -1.574230         0.585215         2.861381
 C        -0.207694         0.239356         2.376777
 H         1.307746         0.022750         0.199704
 H        -2.172070         1.682233        -0.295519
 H        -2.429696         0.024028         0.403571
 H        -0.733171         3.135035         0.581536
 H         0.031965         3.083122         2.106112
 H        -1.544764         2.381417         4.305542
 H        -2.876404         1.155532         4.643701
 H        -2.360109        -0.154715         2.713526
 H         0.626551         0.570287         3.067667
 H        -0.031812        -0.781019         2.189064
