19
Iteration:   961
 O         0.874369         0.748308         0.181338
 C        -0.206810         1.028423         1.075560
 C        -1.750483         1.020316         0.551465
 C        -1.938129         1.698106         1.876380
 C        -0.538958         2.369767         1.582506
 O        -3.012534         2.282294         2.680833
 C        -2.336865         1.625109         3.806312
 C        -1.579210         0.635574         2.877155
 C        -0.202686         0.068536         2.391847
 H         0.662513         1.168590        -0.654160
 H        -1.901064         1.636428        -0.385077
 H        -2.420408         0.103372         0.469571
 H        -0.784964         3.030344         0.585097
 H         0.123343         2.756432         2.337308
 H        -1.603645         2.274352         4.353233
 H        -3.162515         1.283526         4.484226
 H        -2.244447        -0.242686         2.611211
 H         0.569292         0.381276         3.060954
 H        -0.443837        -1.011400         2.216701
