19
Iteration:  2483charge 0 multiplicity 1
 O         0.839678         0.771288         0.177918
 C        -0.219233         1.031515         1.022299
 C        -1.884903         0.862029         0.589853
 C        -1.929889         1.688089         1.847646
 C        -0.583941         2.434548         1.729050
 O        -2.904114         2.219411         2.605062
 C        -2.288445         1.640747         3.797080
 C        -1.620931         0.630259         2.824123
 C        -0.125190         0.252157         2.379184
 H         0.564369         0.882210        -0.748856
 H        -2.172866         1.292515        -0.468179
 H        -2.310837        -0.176999         0.633418
 H        -0.768905         3.205068         0.977030
 H        -0.099476         2.632928         2.652542
 H        -1.630812         2.445295         4.285688
 H        -2.974773         1.077979         4.473477
 H        -2.331970        -0.240746         2.801433
 H         0.618079         0.648213         3.062935
 H        -0.084512        -0.867126         2.332821
