19
Iteration:  4630
 O         0.794583         0.656324         0.181384
 C        -0.223425         1.080757         1.093322
 C        -1.693214         0.906675         0.542889
 C        -1.971720         1.762416         1.831533
 C        -0.540871         2.492898         1.539947
 O        -3.167804         2.075196         2.689108
 C        -2.271495         1.660561         3.834618
 C        -1.513354         0.627047         2.890717
 C        -0.121867         0.256869         2.393053
 H         0.501793         1.099220        -0.690593
 H        -1.758730         1.588280        -0.460130
 H        -2.274603        -0.015739         0.369574
 H        -0.655463         3.091921         0.601569
 H         0.213810         2.971235         2.363747
 H        -1.742128         2.455258         4.210079
 H        -2.807877         1.279582         4.770768
 H        -2.139011        -0.283239         2.869816
 H         0.651936         0.673589         3.160649
 H        -0.052461        -0.800469         2.170280
