19
Iteration:  2973charge 0 multiplicity 1
 O         0.869059         0.673124         0.224864
 C        -0.225752         1.045589         1.045578
 C        -1.874056         0.931701         0.595516
 C        -1.923913         1.653177         1.877675
 C        -0.639538         2.502416         1.534246
 O        -3.004144         2.163817         2.641852
 C        -2.256128         1.628656         3.743414
 C        -1.570789         0.566706         2.856571
 C        -0.105824         0.289040         2.465769
 H         0.729850         1.089901        -0.670795
 H        -2.144037         1.652545        -0.170272
 H        -2.267753        -0.018694         0.547759
 H        -0.646931         3.170422         0.632914
 H        -0.107988         3.148403         2.277374
 H        -1.626663         2.384760         4.109910
 H        -2.864902         1.147515         4.575979
 H        -2.380749        -0.202710         2.697704
 H         0.595483         0.868563         3.088140
 H        -0.030213        -0.829467         2.424106
