19
Iteration:  3651
 O         0.771558         0.718305         0.186683
 C        -0.225123         0.994193         1.061962
 C        -1.737127         0.870770         0.622697
 C        -1.924179         1.675373         1.832275
 C        -0.640797         2.442741         1.585799
 O        -3.033921         2.235298         2.631101
 C        -2.262391         1.620831         3.724899
 C        -1.552566         0.624501         2.910876
 C        -0.127513         0.298824         2.441568
 H         0.705544         1.278203        -0.663886
 H        -1.850200         1.325195        -0.440172
 H        -2.263471        -0.046818         0.475573
 H        -0.544912         3.096973         0.692071
 H         0.022778         2.697114         2.391925
 H        -1.635719         2.341402         4.336656
 H        -3.014598         1.076184         4.454223
 H        -2.273708        -0.210535         2.807965
 H         0.648025         0.812069         3.025012
 H        -0.022375        -0.737286         2.479620
