19
Iteration:  1380charge 0 multiplicity 1
 O         0.769452         0.638669         0.134653
 C        -0.265913         1.032126         1.020040
 C        -1.687644         0.909745         0.528817
 C        -1.965570         1.682196         1.848966
 C        -0.639583         2.412973         1.657733
 O        -2.970627         2.190486         2.627234
 C        -2.304350         1.716847         3.930291
 C        -1.625368         0.623876         2.893144
 C        -0.135871         0.308565         2.271642
 H         1.624431         0.882812         0.481862
 H        -1.794793         1.466436        -0.413037
 H        -2.065357        -0.114184         0.519251
 H        -0.641009         3.200319         0.917563
 H        -0.130867         2.974435         2.523882
 H        -1.878718         2.580532         4.325816
 H        -2.895279         1.180923         4.559561
 H        -2.236740        -0.274204         2.849235
 H         0.726932         0.599365         2.833275
 H        -0.066230        -0.784317         2.199710
