19
Iteration:  2385charge 0 multiplicity 1
 O         0.894363         0.860582         0.123250
 C        -0.254479         0.962485         1.061628
 C        -1.782916         0.975110         0.492701
 C        -1.950204         1.656909         1.834385
 C        -0.630425         2.426082         1.496887
 O        -2.948240         2.224924         2.748504
 C        -2.282203         1.584561         3.883097
 C        -1.649009         0.623760         2.885532
 C        -0.212692         0.216755         2.418098
 H         1.349886         0.040121         0.249108
 H        -1.667567         1.558026        -0.459521
 H        -2.251464         0.058971         0.207003
 H        -0.807000         3.155985         0.688803
 H        -0.090192         2.972363         2.294771
 H        -1.680657         2.270083         4.514457
 H        -3.019945         1.120920         4.557435
 H        -2.330422        -0.226371         2.802672
 H         0.686885         0.467303         2.971169
 H        -0.245263        -0.906660         2.160350
