19
Iteration:   916
 O         0.842887         0.571361         0.286082
 C        -0.170920         1.033317         1.026596
 C        -1.801551         1.067568         0.455042
 C        -1.961492         1.670291         1.837116
 C        -0.622785         2.422296         1.643246
 O        -2.936289         2.327323         2.770404
 C        -2.259677         1.542142         3.746902
 C        -1.698130         0.561629         2.807625
 C        -0.156710         0.285966         2.424158
 H         0.818238         0.977333        -0.621401
 H        -1.771044         1.692717        -0.468104
 H        -2.227492         0.036677         0.229843
 H        -0.959847         3.260961         0.744590
 H        -0.106364         2.871387         2.453935
 H        -1.615788         2.335038         4.222137
 H        -2.992800         1.063783         4.443722
 H        -2.301229        -0.358840         2.550358
 H         0.698943         0.718456         2.964242
 H        -0.051311        -0.760291         2.103270
