19
Iteration:  1288
 O         0.894424         0.662371         0.167927
 C        -0.293229         1.013540         0.999214
 C        -1.804251         0.927003         0.486735
 C        -1.957780         1.628097         1.891243
 C        -0.716654         2.475161         1.474751
 O        -2.924574         2.197036         2.726948
 C        -2.289929         1.668698         3.850338
 C        -1.557090         0.641295         2.882075
 C        -0.213622         0.270608         2.427904
 H         1.677251         1.011889         0.652341
 H        -1.940669         1.708817        -0.276424
 H        -2.180275        -0.088652         0.218128
 H        -0.675624         3.189592         0.545724
 H        -0.125077         3.100990         2.172080
 H        -1.684633         2.463020         4.325605
 H        -2.980431         1.178120         4.649624
 H        -2.229637        -0.252144         2.857384
 H         0.753584         0.495186         2.934330
 H        -0.205265        -0.836980         2.256219
