19
Iteration:  3419charge 0 multiplicity 1
 O         0.867575         0.778876         0.264142
 C        -0.279294         0.929382         0.974778
 C        -1.725815         0.880369         0.446305
 C        -1.951738         1.683490         1.832801
 C        -0.657035         2.393543         1.512108
 O        -3.014162         2.171234         2.730866
 C        -2.254024         1.744477         3.891786
 C        -1.598238         0.638208         2.921284
 C        -0.167846         0.222093         2.380945
 H         1.107448         1.442345        -0.418159
 H        -1.832742         1.398629        -0.563379
 H        -2.161871        -0.114441         0.307493
 H        -0.836262         3.113093         0.778153
 H        -0.150114         2.838189         2.383792
 H        -1.580380         2.423575         4.254099
 H        -2.908256         1.446952         4.748495
 H        -2.322035        -0.155715         2.848810
 H         0.764306         0.586222         2.893874
 H        -0.188722        -0.865846         2.135042
