19
Iteration:  1125
 O         0.910715         0.832094         0.181649
 C        -0.242261         0.943890         1.063712
 C        -1.857356         0.872577         0.490343
 C        -1.959870         1.701963         1.869966
 C        -0.577227         2.404821         1.582495
 O        -3.006999         2.283318         2.660741
 C        -2.314398         1.649120         3.855974
 C        -1.585298         0.657601         2.896554
 C        -0.106253         0.173697         2.371780
 H         0.705232         0.205905        -0.580656
 H        -2.054757         1.430963        -0.465328
 H        -2.379503        -0.124666         0.517166
 H        -0.691418         3.277804         0.801315
 H        -0.010532         2.667912         2.458582
 H        -1.606764         2.478504         4.280890
 H        -3.075847         1.244169         4.585331
 H        -2.296139        -0.229004         2.941877
 H         0.806661         0.547479         2.963827
 H        -0.200715        -0.962632         2.252298
