19
Iteration:  1122charge 0 multiplicity 1
 O         0.870017         0.842534         0.173245
 C        -0.233921         0.942354         1.072862
 C        -1.841416         0.862403         0.531883
 C        -1.951416         1.713361         1.855054
 C        -0.546354         2.423859         1.571410
 O        -3.018550         2.273665         2.663893
 C        -2.319678         1.658367         3.850154
 C        -1.592510         0.650479         2.871256
 C        -0.100666         0.150242         2.378359
 H         0.824590         0.232361        -0.531569
 H        -2.031418         1.400532        -0.408197
 H        -2.373911        -0.106130         0.500251
 H        -0.625065         3.263217         0.768952
 H         0.050017         2.668923         2.504513
 H        -1.661291         2.355093         4.282799
 H        -3.095488         1.301559         4.600956
 H        -2.279724        -0.231236         2.930703
 H         0.766001         0.622596         2.877756
 H        -0.223780        -0.951944         2.310685
