19
Iteration:  1283charge 0 multiplicity 1
 O         0.871547         0.673847         0.166888
 C        -0.311663         0.995866         1.033960
 C        -1.781086         1.006196         0.467928
 C        -1.948956         1.624584         1.838175
 C        -0.661061         2.466208         1.419664
 O        -2.983763         2.180693         2.721121
 C        -2.271921         1.643680         3.896437
 C        -1.589339         0.645222         2.921879
 C        -0.182501         0.260036         2.446361
 H         1.673875         0.919304         0.632631
 H        -1.974518         1.625414        -0.427437
 H        -2.109356        -0.031127         0.380015
 H        -0.728819         3.079371         0.516263
 H        -0.012537         2.990055         2.135109
 H        -1.617910         2.471156         4.362107
 H        -2.908518         1.200711         4.719679
 H        -2.246913        -0.227838         2.797273
 H         0.713922         0.631880         2.960943
 H        -0.102425        -0.819059         2.222703
