19
Iteration:  2039
 O         0.827755         0.875057         0.141208
 C        -0.205266         1.068619         1.078611
 C        -1.773213         0.798281         0.525626
 C        -1.940905         1.700862         1.824748
 C        -0.609830         2.487384         1.476131
 O        -2.991686         2.247097         2.759219
 C        -2.244686         1.501506         3.858246
 C        -1.630819         0.619999         2.843638
 C        -0.227002         0.254508         2.426443
 H         1.000128        -0.064246         0.184765
 H        -1.818709         1.319861        -0.498923
 H        -2.244696        -0.269359         0.384428
 H        -0.600653         3.180591         0.650340
 H        -0.046845         2.923313         2.265532
 H        -1.440786         2.021132         4.429746
 H        -2.965541         1.193777         4.558679
 H        -2.375395        -0.099705         2.539164
 H         0.602530         0.696167         3.125275
 H         0.029604        -0.799686         2.355443
