19
Iteration:   378
 O         0.812751         0.791154         0.197455
 C        -0.175399         1.030904         1.142073
 C        -1.755927         1.076655         0.475302
 C        -1.938041         1.616742         1.797143
 C        -0.560409         2.369184         1.744181
 O        -2.950075         2.289085         2.558364
 C        -2.312773         1.658245         3.842911
 C        -1.628359         0.607333         2.881556
 C        -0.258389         0.086966         2.338532
 H         0.841974        -0.212258         0.183581
 H        -1.597652         1.789713        -0.340986
 H        -2.210318         0.137142         0.090247
 H        -0.362147         3.225922         1.015586
 H        -0.095310         2.723378         2.582100
 H        -1.562305         2.349139         4.225566
 H        -3.094287         1.571928         4.567797
 H        -2.412502        -0.129255         2.703717
 H         0.611323         0.050049         2.984144
 H        -0.430358        -0.915774         2.034878
