19
Iteration:  1376charge 0 multiplicity 1
 O         0.751624         0.668066         0.118445
 C        -0.243908         1.007999         1.043965
 C        -1.700178         0.925135         0.527453
 C        -1.917851         1.631144         1.876792
 C        -0.607402         2.423798         1.621497
 O        -3.006759         2.198955         2.647377
 C        -2.324627         1.727419         3.837962
 C        -1.624717         0.625140         2.919983
 C        -0.142543         0.291672         2.309620
 H         1.602208         0.997657         0.504934
 H        -1.730046         1.462266        -0.417475
 H        -2.180358        -0.062434         0.459338
 H        -0.717542         3.210107         0.884832
 H        -0.067316         2.748515         2.606395
 H        -1.734926         2.593674         4.335198
 H        -2.880060         1.183561         4.720012
 H        -2.228577        -0.269771         2.869019
 H         0.801544         0.652588         2.802756
 H        -0.117632        -0.761412         2.128846
