19
Iteration:  1779charge 0 multiplicity 1
 O         0.865311         0.953528         0.188672
 C        -0.219081         1.029973         1.096092
 C        -1.889321         0.807856         0.517107
 C        -1.971589         1.578684         1.814702
 C        -0.672429         2.422732         1.523214
 O        -2.853280         2.349682         2.694228
 C        -2.266800         1.537260         3.864769
 C        -1.612784         0.601621         2.814305
 C        -0.169143         0.213485         2.399414
 H         1.027372        -0.050330         0.130278
 H        -1.744964         1.343279        -0.384466
 H        -2.436172        -0.069532         0.448854
 H        -0.802763         2.935980         0.571097
 H        -0.335532         3.031966         2.429252
 H        -1.704535         2.369969         4.416187
 H        -2.916681         0.934800         4.571807
 H        -2.292285        -0.235522         2.705526
 H         0.667919         0.627376         3.029468
 H        -0.096957        -0.805639         2.400439
