19
Iteration:  1993charge 0 multiplicity 1
 O         0.905206         0.972840         0.129100
 C        -0.195993         1.074494         0.988741
 C        -1.853178         0.917023         0.573705
 C        -1.948825         1.534380         1.884422
 C        -0.646699         2.401000         1.565534
 O        -2.936717         2.237686         2.604274
 C        -2.270618         1.689468         3.784136
 C        -1.629633         0.508481         2.945936
 C        -0.177280         0.169083         2.485038
 H         0.831923         0.125653        -0.400453
 H        -2.089458         1.580329        -0.302242
 H        -2.424061        -0.104528         0.434674
 H        -0.950316         3.206148         0.923960
 H        -0.007965         2.741049         2.371932
 H        -1.681014         2.537844         4.258638
 H        -2.881975         1.324694         4.616941
 H        -2.200354        -0.435883         3.084768
 H         0.663628         0.273636         3.189151
 H        -0.144280        -0.914632         2.156255
