19
Iteration:  1412
 O         0.790827         0.746893         0.127111
 C        -0.237193         0.946410         1.063441
 C        -1.723889         0.914515         0.557840
 C        -1.957884         1.742979         1.804969
 C        -0.624195         2.456904         1.441500
 O        -2.960964         2.251891         2.763489
 C        -2.314331         1.571441         3.831439
 C        -1.641324         0.564664         2.848794
 C        -0.149680         0.318567         2.473289
 H         1.594683         0.487277         0.603305
 H        -1.664502         1.479969        -0.386462
 H        -2.302889         0.012530         0.361582
 H        -0.798585         2.916391         0.435171
 H         0.001733         3.048748         2.247181
 H        -1.659931         2.341492         4.244167
 H        -2.958118         1.191817         4.604262
 H        -2.349386        -0.259479         2.774977
 H         0.694919         0.605269         3.082348
 H        -0.119906        -0.768649         2.328961
