19
Iteration:  1420charge 0 multiplicity 1
 O         0.767070         0.800503         0.130694
 C        -0.245874         0.953434         1.095402
 C        -1.737158         0.909418         0.540115
 C        -1.964982         1.745709         1.831422
 C        -0.594627         2.393653         1.442223
 O        -2.955313         2.246285         2.715713
 C        -2.286614         1.564451         3.880861
 C        -1.624777         0.588151         2.820281
 C        -0.191308         0.282033         2.463643
 H         1.553608         0.458155         0.622375
 H        -1.723836         1.439839        -0.409676
 H        -2.283787        -0.030539         0.400820
 H        -0.614627         2.782313         0.475118
 H         0.066340         2.989749         2.086931
 H        -1.527570         2.263642         4.421272
 H        -3.149976         1.405817         4.590800
 H        -2.281993        -0.250668         2.699284
 H         0.493623         0.891847         3.109521
 H         0.156049        -0.719804         2.372851
