19
Iteration:  4928
 O         0.906829         0.888595         0.188595
 C        -0.256793         1.004579         1.020802
 C        -1.722225         0.760908         0.552120
 C        -2.006847         1.648383         1.852698
 C        -0.767183         2.403161         1.504521
 O        -2.977732         2.294095         2.680801
 C        -2.185983         1.602295         3.846961
 C        -1.558466         0.646618         2.892227
 C        -0.195976         0.297268         2.418271
 H         0.818511         0.041460        -0.231423
 H        -1.958120         1.130541        -0.408586
 H        -2.033677        -0.309838         0.499865
 H        -0.870184         2.944548         0.645653
 H        -0.164780         2.895651         2.185785
 H        -1.586833         2.430460         4.337751
 H        -3.055727         1.236193         4.585571
 H        -2.300839        -0.189568         2.840034
 H         0.656640         0.595388         3.024095
 H        -0.106187        -0.824237         2.362959
