19
Iteration:  3891charge 0 multiplicity 1
 O         0.448302         0.663773         0.835515
 C        -0.726462         1.004424         0.065561
 C        -0.616896         1.569412        -1.321558
 C        -1.870408         2.239394        -0.884110
 C        -2.900064         2.627906        -2.008510
 O        -3.517364         1.277323        -1.974237
 C        -2.975456         1.151282        -0.618554
 C        -2.090158         0.006875        -0.075345
 C        -1.345501         2.440608         0.529731
 H         0.187296        -0.079754         1.401975
 H         0.165116         2.316680        -1.511673
 H        -0.626082         0.781409        -2.073282
 H        -3.463172         3.476665        -1.720313
 H        -2.548601         2.909530        -3.059710
 H        -3.631006         1.516227         0.098988
 H        -2.553949        -0.487877         0.863775
 H        -2.148596        -0.915951        -0.721851
 H        -0.453353         3.091301         0.644892
 H        -2.132980         2.457829         1.271988
