19
Iteration:  3610charge 0 multiplicity 1
 O         0.350214         0.414699         0.856005
 C        -0.701374         1.113240         0.203587
 C        -0.622212         1.446315        -1.323583
 C        -1.933985         2.275822        -0.875362
 C        -2.889734         2.620124        -2.045185
 O        -3.560120         1.334182        -1.967293
 C        -2.951164         1.137767        -0.607377
 C        -2.014168         0.042415        -0.124425
 C        -1.329200         2.578053         0.518228
 H         1.120576         1.022717         0.763286
 H         0.129083         2.247350        -1.613329
 H        -0.590732         0.614459        -2.074068
 H        -3.776582         3.290456        -1.860952
 H        -2.501122         2.817990        -3.047700
 H        -3.738471         1.304939         0.113626
 H        -2.285638        -0.414626         0.848493
 H        -1.712137        -0.789538        -0.823234
 H        -0.537129         3.365548         0.397082
 H        -2.067841         2.586446         1.357049
