19
Iteration:  4819charge 0 multiplicity 1
 O         0.423696         0.554906         0.809665
 C        -0.764016         0.965252         0.144626
 C        -0.665018         1.566840        -1.252317
 C        -2.019864         2.222327        -0.840595
 C        -2.900610         2.816323        -1.950584
 O        -3.432517         1.354218        -2.121279
 C        -2.890941         1.053028        -0.731549
 C        -1.896868        -0.017795        -0.066419
 C        -1.529380         2.366022         0.597915
 H         1.127595         1.284635         0.912603
 H        -0.084825         2.496737        -1.378765
 H        -0.685624         0.754054        -2.038318
 H        -3.746505         3.579166        -1.905732
 H        -2.414435         2.981300        -2.899671
 H        -3.735213         1.162103         0.003045
 H        -2.401655        -0.250628         0.765697
 H        -1.617721        -0.971498        -0.429364
 H        -0.781087         3.128484         0.808159
 H        -2.132967         2.218371         1.553122
