19
Iteration:  1261charge 0 multiplicity 1
 O         0.500202         0.613559         0.710554
 C        -0.802916         1.029686         0.189578
 C        -0.691515         1.501113        -1.229903
 C        -2.012764         2.281974        -0.783643
 C        -2.875764         2.788713        -1.927158
 O        -3.453546         1.343636        -2.103346
 C        -2.986629         1.053330        -0.711679
 C        -1.936415        -0.050175        -0.132596
 C        -1.396170         2.408337         0.567319
 H         0.334412         0.397019         1.594828
 H         0.220727         2.141679        -1.403831
 H        -0.670351         0.752755        -2.048727
 H        -3.640033         3.526369        -1.641194
 H        -2.354434         3.175200        -2.844743
 H        -3.870282         1.115651        -0.079624
 H        -2.455316        -0.456846         0.885804
 H        -1.767453        -1.000719        -0.582853
 H        -0.538415         3.118882         0.606180
 H        -2.189140         2.361363         1.349345
