19
Iteration:  2279
 O         0.316910         0.367258         0.648707
 C        -0.802334         1.058690         0.190914
 C        -0.665124         1.567312        -1.267517
 C        -1.951625         2.325965        -0.938672
 C        -3.126021         2.644819        -1.970172
 O        -3.352772         1.248572        -2.030068
 C        -2.892664         1.161561        -0.588588
 C        -1.981312         0.123331         0.025171
 C        -1.156090         2.579900         0.527654
 H         0.094875        -0.094768         1.478202
 H         0.253505         2.178867        -1.550636
 H        -0.775690         0.672311        -1.983068
 H        -4.028754         3.115126        -1.485156
 H        -2.638848         3.094385        -2.892726
 H        -3.733351         1.339757        -0.012235
 H        -2.429188        -0.425620         0.886622
 H        -1.651153        -0.700275        -0.712708
 H        -0.383842         3.256409         0.465365
 H        -1.841394         2.768198         1.378190
