19
Iteration:  3846
 O         0.426002         0.488366         0.754817
 C        -0.763030         1.072763         0.201316
 C        -0.690490         1.547744        -1.280167
 C        -1.963246         2.240595        -0.883503
 C        -2.910988         2.571654        -2.022543
 O        -3.472227         1.299819        -2.041934
 C        -2.954209         1.109161        -0.650123
 C        -1.995302         0.103263        -0.008964
 C        -1.335224         2.572521         0.573727
 H         0.510243        -0.437552         0.908664
 H         0.070669         2.270247        -1.467954
 H        -0.811932         0.954845        -2.196703
 H        -3.578189         3.355358        -1.758002
 H        -2.349868         2.920969        -2.954581
 H        -3.773299         1.354180        -0.075477
 H        -2.383423        -0.368470         0.960700
 H        -1.661899        -0.759453        -0.601843
 H        -0.518366         3.352039         0.458634
 H        -2.028596         2.732441         1.386899
