19
Iteration:  3474
 O         0.358116         0.394304         0.710992
 C        -0.791042         0.996190         0.086819
 C        -0.636170         1.649265        -1.278820
 C        -1.881463         2.419550        -0.854386
 C        -3.045615         2.646151        -1.982329
 O        -3.364659         1.126976        -2.035570
 C        -2.853548         1.196394        -0.633430
 C        -2.037525         0.124700        -0.043264
 C        -1.366722         2.474508         0.574707
 H         0.351492         0.389397         1.662649
 H         0.302647         2.304471        -1.274752
 H        -0.573956         0.970352        -2.186070
 H        -3.931012         3.293923        -1.662904
 H        -2.795140         3.041029        -3.033441
 H        -3.616812         1.576761         0.032312
 H        -2.422112        -0.201216         0.895986
 H        -1.875471        -0.727983        -0.619361
 H        -0.476986         3.076390         0.754759
 H        -2.122021         2.443730         1.406075
