19
Iteration:  2680charge 0 multiplicity 1
 O         0.518217         0.570608         0.688967
 C        -0.808517         0.971227         0.156547
 C        -0.657731         1.476571        -1.313674
 C        -1.958916         2.222226        -0.906148
 C        -2.863972         2.700894        -2.051038
 O        -3.545840         1.337300        -1.943619
 C        -2.967456         1.131456        -0.633174
 C        -2.033960         0.094799        -0.071041
 C        -1.335813         2.467942         0.603834
 H         0.325252         0.367511         1.636734
 H         0.235460         2.114107        -1.440097
 H        -0.703651         0.680862        -2.096945
 H        -3.475259         3.552596        -1.708108
 H        -2.307507         2.800005        -2.946211
 H        -3.862199         1.308950         0.165881
 H        -2.477228        -0.539217         0.868714
 H        -1.761190        -0.675533        -0.842764
 H        -0.525508         3.190514         0.774131
 H        -2.102767         2.492623         1.454793
