19
Iteration:  4324charge 0 multiplicity 1
 O         0.362054         0.556734         0.868540
 C        -0.764049         0.959697         0.219216
 C        -0.764522         1.546739        -1.325563
 C        -2.076158         2.204162        -0.833070
 C        -2.872517         2.769049        -1.892198
 O        -3.394065         1.377536        -2.112246
 C        -2.927672         1.035716        -0.760540
 C        -1.908642         0.009017        -0.090727
 C        -1.366996         2.401062         0.531837
 H         1.021198         1.250871         0.574516
 H         0.018832         2.241762        -1.315317
 H        -1.003678         0.927986        -2.179440
 H        -3.647366         3.482068        -1.386451
 H        -2.451744         3.180717        -2.800565
 H        -3.801076         0.924949        -0.173651
 H        -2.361954        -0.435227         0.865216
 H        -1.295651        -0.830966        -0.562037
 H        -0.559639         3.123811         0.508388
 H        -1.858122         2.672360         1.403298
