19
Iteration:  1102
 O         0.431573         0.533183         0.783338
 C        -0.797080         0.944000         0.188039
 C        -0.695061         1.536954        -1.349014
 C        -1.998947         2.255316        -0.827538
 C        -3.010552         2.819788        -1.872741
 O        -3.376412         1.282329        -2.124977
 C        -2.987814         1.043272        -0.729707
 C        -1.965423         0.034792        -0.064820
 C        -1.258822         2.476599         0.551842
 H         0.333447         0.542383         1.717353
 H         0.122989         2.304088        -1.470734
 H        -0.668398         0.795421        -2.174233
 H        -3.917559         3.373915        -1.503029
 H        -2.615289         3.347623        -2.754436
 H        -3.787117         1.200735        -0.045731
 H        -2.482690        -0.361894         0.835109
 H        -1.706884        -0.972062        -0.534329
 H        -0.445529         3.146446         0.305702
 H        -1.760915         2.838966         1.551471
