19
Iteration:  4843charge 0 multiplicity 1
 O         0.323735         0.503375         0.846981
 C        -0.735124         1.028821         0.114527
 C        -0.681353         1.687495        -1.326928
 C        -2.009647         2.212808        -0.834814
 C        -2.934709         2.742952        -1.902655
 O        -3.385004         1.299679        -2.200905
 C        -2.946407         1.038727        -0.655272
 C        -1.925286        -0.026460        -0.048163
 C        -1.371686         2.432203         0.615977
 H         1.080350         1.045340         0.991934
 H        -0.108700         2.587254        -1.460086
 H        -0.597659         0.828555        -2.000690
 H        -3.831873         3.304065        -1.641387
 H        -2.428541         3.252242        -2.724354
 H        -3.934726         1.105303        -0.222282
 H        -2.235359        -0.443457         0.847761
 H        -1.745739        -0.906744        -0.724986
 H        -0.536349         3.096113         0.721414
 H        -2.045891         2.475281         1.541098
