19
Iteration:  1591
 O         0.450607         0.385566         0.731561
 C        -0.696408         0.972551         0.120166
 C        -0.720732         1.573871        -1.299325
 C        -1.976059         2.279996        -0.869889
 C        -2.889589         2.745523        -2.025571
 O        -3.453526         1.296293        -2.041296
 C        -2.969260         1.162563        -0.649244
 C        -1.975568         0.079539         0.015868
 C        -1.409964         2.458498         0.605765
 H         0.631688         0.862323         1.605812
 H         0.056955         2.395754        -1.294112
 H        -0.720903         1.027429        -2.324217
 H        -3.748636         3.416399        -1.871719
 H        -2.269289         2.892477        -2.902914
 H        -3.751266         1.269425         0.046237
 H        -2.274108        -0.316178         0.927784
 H        -1.787227        -0.706840        -0.659115
 H        -0.789883         3.253336         0.523254
 H        -2.260396         2.314753         1.349350
