19
Iteration:  2871
 O         0.383892         0.390411         0.898958
 C        -0.676485         1.021910         0.114469
 C        -0.650633         1.573184        -1.456413
 C        -1.944341         2.332871        -0.911394
 C        -3.068395         2.712398        -1.882418
 O        -3.402447         1.281839        -2.034748
 C        -2.924650         1.126101        -0.606512
 C        -1.990537         0.031851        -0.084362
 C        -1.323944         2.469525         0.433086
 H         0.075115         0.587163         1.853241
 H         0.095358         2.338342        -1.512339
 H        -0.855722         1.033679        -2.349489
 H        -3.747788         3.368460        -1.377851
 H        -2.764121         3.248304        -2.828588
 H        -3.796287         1.373586        -0.074631
 H        -2.392137        -0.158214         0.982098
 H        -1.735547        -0.877123        -0.721394
 H        -0.416966         3.141122         0.694870
 H        -1.825007         2.562093         1.444681
