19
Iteration:  4171
 O         0.307795         0.332836         0.884920
 C        -0.657318         1.132046         0.180519
 C        -0.698496         1.623468        -1.296500
 C        -2.010019         2.269905        -0.836903
 C        -3.093999         2.707867        -1.848865
 O        -3.310078         1.291799        -2.166406
 C        -2.933006         1.038634        -0.727502
 C        -1.956280         0.053523        -0.025181
 C        -1.324304         2.555072         0.478797
 H         1.119654         0.480633         0.456026
 H         0.146310         2.309439        -1.436645
 H        -0.485868         0.927446        -2.163349
 H        -3.940176         3.241674        -1.339359
 H        -2.929583         3.224383        -2.787684
 H        -3.899843         1.242068        -0.107226
 H        -2.432960        -0.393534         0.904990
 H        -1.474835        -0.878476        -0.565434
 H        -0.586744         3.354135         0.437940
 H        -2.012021         2.522795         1.235778
