19
Iteration:    36charge 0 multiplicity 1
 O         0.330946         0.326906         0.866866
 C        -0.741514         1.027452         0.169488
 C        -0.555507         1.717908        -1.261803
 C        -1.958297         2.292141        -0.914407
 C        -3.130987         2.682075        -1.863821
 O        -3.470712         1.348774        -2.045982
 C        -2.868584         1.019846        -0.686597
 C        -1.849571        -0.034853        -0.184459
 C        -1.425622         2.533679         0.499862
 H         1.044264         0.987330         1.070301
 H         0.144352         2.552232        -1.143232
 H        -0.430273         1.091496        -2.172828
 H        -3.884775         3.223148        -1.324994
 H        -2.975088         3.239373        -2.836386
 H        -3.639867         1.245748         0.067734
 H        -2.082985        -0.698046         0.607140
 H        -1.462964        -0.639014        -1.008418
 H        -0.531873         3.279525         0.453001
 H        -2.202596         2.633789         1.277061
