19
Iteration:   428
 O         0.433691         0.608821         0.836906
 C        -0.757795         1.014734         0.169725
 C        -0.706555         1.706644        -1.265488
 C        -2.046090         2.308297        -0.770342
 C        -2.915111         2.724819        -1.880544
 O        -3.365628         1.372248        -2.128536
 C        -2.990727         0.968625        -0.639658
 C        -1.938158        -0.028550        -0.262896
 C        -1.414354         2.318490         0.588290
 H         0.317575        -0.292985         0.630517
 H        -0.005676         2.548040        -1.137798
 H        -0.616539         1.182419        -2.215609
 H        -3.757901         3.324989        -1.632757
 H        -2.395300         3.058948        -2.828321
 H        -3.795383         0.966861         0.105426
 H        -2.246378        -0.693751         0.617299
 H        -1.480237        -0.630319        -1.102289
 H        -0.432625         2.999075         0.703443
 H        -2.063847         2.288127         1.480719
