19
Iteration:  2148
 O         0.363844         0.336275         0.847439
 C        -0.642169         1.009621         0.090756
 C        -0.652380         1.594628        -1.398423
 C        -1.974899         2.337314        -0.855331
 C        -3.131113         2.721504        -1.989393
 O        -3.382354         1.228248        -1.949459
 C        -2.860727         1.150635        -0.682443
 C        -1.995948         0.063874        -0.001086
 C        -1.251838         2.539713         0.431820
 H        -0.217342        -0.071426         1.583860
 H         0.232251         2.201735        -1.508771
 H        -0.994201         1.064692        -2.287786
 H        -3.932036         3.352200        -1.435569
 H        -2.878416         3.225351        -2.926377
 H        -3.775904         1.502546         0.046813
 H        -2.379304        -0.062842         1.036699
 H        -1.718965        -0.840776        -0.549910
 H        -0.496633         3.334900         0.487100
 H        -2.036330         2.840177         1.254264
