19
Iteration:   989charge 0 multiplicity 1
 O         0.416861         0.586243         0.732909
 C        -0.736214         0.998470         0.076690
 C        -0.687599         1.550158        -1.346653
 C        -1.951110         2.275578        -0.889452
 C        -2.953044         2.807919        -1.893541
 O        -3.371223         1.246632        -2.067341
 C        -2.907053         1.106502        -0.605317
 C        -2.056234         0.009764         0.002213
 C        -1.341690         2.382981         0.548970
 H         0.127735         0.342664         1.681827
 H         0.095267         2.328567        -1.569480
 H        -0.635444         0.766209        -2.141596
 H        -3.904929         3.307859        -1.460585
 H        -2.792104         3.219747        -2.979015
 H        -3.795915         1.311814        -0.007601
 H        -2.528107        -0.363373         0.984114
 H        -1.845565        -0.845177        -0.805094
 H        -0.404273         3.052131         0.718695
 H        -2.055756         2.573478         1.429034
