19
Iteration:  3733
 O         0.397475         0.547809         0.934132
 C        -0.699959         0.967958         0.078958
 C        -0.576095         1.478543        -1.307564
 C        -1.911197         2.328420        -0.940592
 C        -2.992660         2.657867        -2.138966
 O        -3.516408         1.320931        -1.918098
 C        -2.936856         1.190306        -0.632845
 C        -2.046591         0.070588        -0.048200
 C        -1.382364         2.394458         0.563550
 H         1.167230         0.524861         0.328949
 H         0.264090         2.160862        -1.551927
 H        -0.491416         0.823369        -2.144922
 H        -3.728563         3.563476        -1.972777
 H        -2.542249         2.882375        -3.084977
 H        -3.676572         1.359264         0.092249
 H        -2.371787        -0.383140         0.975383
 H        -1.937106        -0.761027        -0.724375
 H        -0.585415         3.108178         0.793227
 H        -2.264350         2.361562         1.372472
