19
Iteration:  2927charge 0 multiplicity 1
 O         0.527157         0.522250         0.717557
 C        -0.688149         0.991074         0.157610
 C        -0.691721         1.509227        -1.216454
 C        -1.977913         2.257465        -0.905432
 C        -2.945887         2.699634        -2.004432
 O        -3.479593         1.336816        -2.023550
 C        -2.941704         1.189643        -0.609342
 C        -2.026463         0.013191        -0.085771
 C        -1.433758         2.447622         0.534999
 H         0.390494         0.230667         1.630621
 H         0.093907         2.253254        -1.393085
 H        -0.637380         0.889562        -2.094494
 H        -3.581985         3.534045        -1.729302
 H        -2.403278         2.927032        -2.967051
 H        -3.669855         1.608588         0.039709
 H        -2.405865        -0.579149         0.825507
 H        -1.848493        -0.806565        -0.822474
 H        -0.549069         3.066022         0.831853
 H        -2.292418         2.434923         1.336561
