19
Iteration:  4572
 O         0.418370         0.556788         0.837822
 C        -0.737335         0.981280         0.186519
 C        -0.728687         1.574639        -1.312019
 C        -2.046655         2.227827        -0.760746
 C        -2.854330         2.794512        -1.960127
 O        -3.436904         1.362221        -2.147810
 C        -2.918446         1.012818        -0.692743
 C        -1.911744        -0.005514        -0.050485
 C        -1.478304         2.365777         0.546044
 H         0.927426         1.450237         0.921380
 H         0.024108         2.332588        -1.327516
 H        -0.608746         0.997369        -2.267946
 H        -3.638557         3.551873        -1.593476
 H        -2.332064         3.143337        -2.867764
 H        -3.774829         0.983443        -0.054818
 H        -2.309362        -0.493442         0.750690
 H        -1.716286        -0.718725        -0.874565
 H        -0.702378         3.037797         0.625220
 H        -2.082652         2.187493         1.394050
