19
Iteration:  3761charge 0 multiplicity 1
 O         0.358455         0.637542         0.840968
 C        -0.763343         1.033728         0.149064
 C        -0.597020         1.472367        -1.226771
 C        -1.952358         2.267780        -0.879926
 C        -2.872795         2.632368        -1.998263
 O        -3.550158         1.388677        -1.988301
 C        -2.962049         1.047335        -0.664311
 C        -2.022757        -0.006328        -0.031367
 C        -1.336371         2.469972         0.440668
 H         0.731822        -0.008836         0.154406
 H         0.230080         2.257536        -1.373407
 H        -0.680654         0.694372        -2.049837
 H        -3.440349         3.516646        -1.744630
 H        -2.175534         2.784509        -2.868028
 H        -3.782375         1.252530         0.147873
 H        -2.276099        -0.506004         0.896553
 H        -1.636007        -0.726561        -0.828761
 H        -0.546276         3.237296         0.474670
 H        -1.900708         2.675239         1.308657
