19
Iteration:  3914charge 0 multiplicity 1
 O         0.362424         0.479080         0.799462
 C        -0.781619         1.026993         0.195916
 C        -0.583680         1.470012        -1.261154
 C        -1.907279         2.245096        -0.937729
 C        -3.099632         2.713503        -1.913531
 O        -3.460992         1.265257        -2.017218
 C        -2.894344         1.135445        -0.688554
 C        -1.937931         0.122752        -0.037669
 C        -1.305463         2.535799         0.411524
 H         0.127036         0.218134         1.694293
 H         0.288576         2.197305        -1.275663
 H        -0.501259         0.736048        -2.056243
 H        -3.888089         3.292406        -1.548997
 H        -2.935044         3.080963        -2.962309
 H        -3.555501         1.455126         0.055883
 H        -2.400709        -0.550507         0.779609
 H        -1.509529        -0.732715        -0.694508
 H        -0.486455         3.228777         0.302925
 H        -2.054723         2.764963         1.182131
