19
Iteration:  1655
 O         0.411364         0.441002         0.839958
 C        -0.780007         0.960846         0.156287
 C        -0.686007         1.598010        -1.374558
 C        -1.940634         2.306568        -0.866228
 C        -3.030847         2.686628        -1.965792
 O        -3.378171         1.304455        -2.001206
 C        -2.871581         1.130091        -0.655071
 C        -1.995317         0.043478        -0.062782
 C        -1.312133         2.527157         0.494787
 H         0.037901        -0.437242         1.245207
 H         0.123619         2.311025        -1.599061
 H        -0.678519         0.936830        -2.293211
 H        -3.762696         3.357513        -1.492093
 H        -2.823458         3.015630        -3.004259
 H        -3.713833         1.578024         0.071943
 H        -2.456558        -0.208620         0.999355
 H        -1.717724        -0.850658        -0.680805
 H        -0.585925         3.259726         0.560590
 H        -2.159997         2.672626         1.274897
