19
Iteration:  2385charge 0 multiplicity 1
 O         0.278339         0.381076         0.799534
 C        -0.746193         1.008115         0.051836
 C        -0.620597         1.589957        -1.359188
 C        -1.867428         2.321814        -0.931796
 C        -3.060858         2.712665        -1.864968
 O        -3.491458         1.255660        -1.998472
 C        -2.843321         1.142454        -0.626745
 C        -1.934400         0.067331         0.020495
 C        -1.252545         2.513871         0.404803
 H         0.101108         0.315089         1.754621
 H         0.247274         2.219712        -1.415759
 H        -0.785247         0.930535        -2.226257
 H        -3.891294         3.404957        -1.616209
 H        -2.899644         2.973637        -2.929388
 H        -3.597564         1.337375         0.256762
 H        -2.445946        -0.125456         0.980561
 H        -1.799794        -0.806027        -0.514370
 H        -0.386238         3.178339         0.400122
 H        -1.839792         2.699982         1.374478
