19
Iteration:  3897charge 0 multiplicity 1
 O         0.432267         0.619707         0.826928
 C        -0.740191         1.055440         0.104704
 C        -0.547719         1.538048        -1.309363
 C        -1.906308         2.271017        -0.926562
 C        -2.928470         2.682480        -2.009355
 O        -3.526120         1.229517        -1.965220
 C        -2.933957         1.131951        -0.627402
 C        -2.112728        -0.014554        -0.084320
 C        -1.333667         2.468979         0.494893
 H         0.212510        -0.031281         1.473021
 H         0.285987         2.223849        -1.518562
 H        -0.549839         0.739088        -2.074673
 H        -3.652627         3.410102        -1.399060
 H        -2.472710         3.042413        -2.905184
 H        -3.817238         1.501891         0.097072
 H        -2.546635        -0.345509         0.817204
 H        -2.032612        -0.841115        -0.788953
 H        -0.496322         3.178181         0.639502
 H        -2.003361         2.533088         1.379303
