19
Iteration:   282charge 0 multiplicity 1
 O         0.398268         0.440878         0.663000
 C        -0.708096         1.036000         0.191520
 C        -0.615361         1.747461        -1.177853
 C        -2.076147         2.332094        -0.737729
 C        -3.093567         2.768551        -1.887183
 O        -3.323923         1.331444        -2.214591
 C        -2.915047         0.988038        -0.771321
 C        -1.834933        -0.016252        -0.069605
 C        -1.441759         2.396026         0.630185
 H        -0.012770        -0.263489         1.286545
 H         0.223632         2.403413        -1.191009
 H        -0.635912         1.299992        -2.161063
 H        -4.023657         3.276651        -1.533512
 H        -2.719544         3.216928        -2.734926
 H        -3.839811         0.866022        -0.174627
 H        -2.201046        -0.465853         0.877959
 H        -1.368366        -0.820316        -0.688902
 H        -0.765384         3.229347         0.688223
 H        -2.232692         2.475976         1.531327
