19
Iteration:  2650
 O         0.426331         0.471571         0.766692
 C        -0.757273         0.949649         0.133604
 C        -0.699200         1.563366        -1.343817
 C        -1.980985         2.298409        -0.911497
 C        -3.041216         2.702951        -1.938938
 O        -3.379998         1.302455        -2.021211
 C        -2.858590         1.112142        -0.617424
 C        -2.031716         0.132894         0.039300
 C        -1.300855         2.496418         0.464882
 H         0.095544        -0.282809         1.339561
 H         0.170206         2.156243        -1.531120
 H        -0.726489         0.918712        -2.190283
 H        -3.814067         3.323144        -1.447944
 H        -2.614537         3.094324        -2.893603
 H        -3.806016         1.313108        -0.120086
 H        -2.424474        -0.236856         0.968437
 H        -1.882422        -0.832223        -0.482865
 H        -0.316455         3.090475         0.400234
 H        -1.991798         2.600918         1.335479
