19
Iteration:  2120
 O         0.354955         0.522523         0.627120
 C        -0.754143         1.112200         0.169680
 C        -0.635193         1.481748        -1.304013
 C        -1.964025         2.204045        -0.864113
 C        -3.005237         2.678832        -1.923534
 O        -3.377032         1.293260        -2.106813
 C        -2.969391         1.118338        -0.592586
 C        -2.060283         0.094280         0.086695
 C        -1.230233         2.478765         0.506059
 H         0.083146        -0.057463         1.356443
 H         0.303112         2.084943        -1.408235
 H        -0.785214         0.661684        -2.024293
 H        -3.716417         3.161592        -1.278522
 H        -2.643992         3.195682        -2.807944
 H        -3.767647         1.524663        -0.048373
 H        -2.356000        -0.367164         1.016776
 H        -1.721200        -0.717634        -0.617587
 H        -0.417046         3.290767         0.414076
 H        -1.815019         2.749216         1.345961
