19
Iteration:   925
 O         0.349267         0.448167         0.727900
 C        -0.779018         1.001658         0.130319
 C        -0.700343         1.632595        -1.348628
 C        -1.991412         2.332731        -0.789874
 C        -2.919526         2.652026        -1.993891
 O        -3.432850         1.297226        -1.977646
 C        -2.875121         1.092328        -0.664379
 C        -1.965231         0.085115        -0.082022
 C        -1.338731         2.394672         0.577163
 H         0.661115         1.115515         1.300176
 H         0.150285         2.395565        -1.338855
 H        -0.692502         0.824029        -2.105261
 H        -3.661168         3.380248        -1.738490
 H        -2.440703         2.797800        -2.982244
 H        -3.762806         1.237382         0.085116
 H        -2.360723        -0.239268         0.922657
 H        -1.814362        -0.715485        -0.925306
 H        -0.447573         3.052498         0.623681
 H        -2.076881         2.522234         1.429846
