19
Iteration:  2459charge 0 multiplicity 1
 O         0.476320         0.503021         0.645332
 C        -0.706763         1.058297         0.079830
 C        -0.680795         1.492517        -1.294826
 C        -2.018960         2.285945        -0.826549
 C        -2.833879         2.634445        -2.020537
 O        -3.520701         1.355216        -2.046452
 C        -3.048445         1.161331        -0.571258
 C        -2.034572         0.117060         0.085124
 C        -1.297471         2.403130         0.520876
 H         0.296785         0.096756         1.554821
 H         0.221290         2.036504        -1.439103
 H        -0.741949         0.716372        -2.028071
 H        -3.617112         3.472801        -1.906913
 H        -2.326387         2.876845        -2.915718
 H        -3.825653         1.349797         0.125393
 H        -2.164048        -0.368620         1.133979
 H        -1.788635        -0.692843        -0.629324
 H        -0.496273         3.210450         0.658998
 H        -2.011896         2.338856         1.404501
