19
Iteration:  2986
 O         0.424241         0.359044         0.749890
 C        -0.694056         1.031900         0.134957
 C        -0.651311         1.568432        -1.292014
 C        -1.992188         2.290884        -0.844165
 C        -3.062753         2.688045        -1.945872
 O        -3.281542         1.233845        -2.023990
 C        -2.991023         1.185277        -0.647670
 C        -2.007207         0.141657        -0.054368
 C        -1.359842         2.540447         0.523629
 H        -0.084571        -0.442025         1.157444
 H         0.152692         2.370169        -1.392680
 H        -0.932377         0.871067        -2.159019
 H        -3.901538         3.361475        -1.696627
 H        -2.700585         2.991267        -2.893603
 H        -3.791083         1.485295        -0.014825
 H        -2.333075        -0.340036         0.780407
 H        -1.661574        -0.468454        -0.817768
 H        -0.498146         3.206369         0.704746
 H        -2.034782         2.711388         1.443960
