19
Iteration:  3189charge 0 multiplicity 1
 O         0.384247         0.369515         0.800947
 C        -0.784778         0.983117         0.166114
 C        -0.726108         1.604358        -1.305016
 C        -1.982055         2.323485        -0.905901
 C        -2.929103         2.691166        -2.010781
 O        -3.452568         1.312643        -2.043284
 C        -2.898531         1.154698        -0.697399
 C        -1.934214         0.031514        -0.002288
 C        -1.370654         2.452726         0.592083
 H         1.226223         0.935561         0.859364
 H         0.122210         2.345401        -1.314415
 H        -0.653839         1.003317        -2.208467
 H        -3.816771         3.351325        -1.669834
 H        -2.574874         3.127770        -3.054269
 H        -3.620977         1.474609         0.041591
 H        -2.478844        -0.254103         0.988966
 H        -1.549562        -0.846731        -0.471758
 H        -0.555483         3.099670         0.464362
 H        -2.117632         2.542404         1.421358
