19
Iteration:  4518
 O         0.222968         0.306978         0.863772
 C        -0.695407         1.044584         0.132213
 C        -0.635288         1.822582        -1.313167
 C        -1.973427         2.323356        -0.761663
 C        -3.025420         2.614185        -1.925880
 O        -3.335486         1.185837        -2.124456
 C        -2.968233         1.142036        -0.676090
 C        -1.872132         0.034637        -0.155246
 C        -1.401030         2.494513         0.545948
 H         1.165275         0.650102         0.865702
 H         0.081752         2.646368        -1.384308
 H        -0.552199         1.179815        -2.255006
 H        -3.902699         3.150346        -1.493177
 H        -2.639779         3.183083        -2.753971
 H        -3.715021         1.486881         0.006861
 H        -2.091001        -0.203005         0.807013
 H        -1.662495        -0.879414        -0.681749
 H        -0.575745         3.189768         0.730508
 H        -2.075575         2.582527         1.395427
