19
Iteration:  3284charge 0 multiplicity 1
 O         0.494349         0.566583         0.787373
 C        -0.682479         1.084022         0.160281
 C        -0.656010         1.489740        -1.317604
 C        -1.951460         2.173138        -0.855846
 C        -2.874198         2.794271        -1.907021
 O        -3.481222         1.368849        -2.076962
 C        -2.989256         1.094232        -0.702346
 C        -2.080815        -0.025251        -0.034516
 C        -1.497944         2.324997         0.554867
 H         1.080296         1.340933         0.936461
 H         0.227866         2.192939        -1.430753
 H        -0.594299         0.629027        -2.054991
 H        -3.574807         3.598304        -1.630516
 H        -2.296170         3.146568        -2.735560
 H        -3.845786         1.435254         0.061123
 H        -2.460306        -0.475163         0.843897
 H        -1.665864        -0.761814        -0.722741
 H        -0.723354         3.153578         0.453751
 H        -2.188337         2.144586         1.359383
