19
Iteration:  3783
 O         0.384387         0.548287         0.951296
 C        -0.734059         0.963125         0.144363
 C        -0.697255         1.532965        -1.378293
 C        -1.975949         2.240395        -0.890234
 C        -2.978346         2.759715        -1.994542
 O        -3.427883         1.245208        -2.041035
 C        -2.971676         1.132996        -0.626648
 C        -1.969470         0.075160        -0.053000
 C        -1.284084         2.509276         0.469422
 H         0.428480        -0.387136         0.778514
 H         0.056762         2.358245        -1.670425
 H        -0.712556         0.721064        -2.169148
 H        -3.776243         3.376402        -1.613837
 H        -2.450814         3.120479        -2.931735
 H        -3.786813         1.329921         0.188130
 H        -2.310988        -0.295463         0.935752
 H        -1.717566        -0.817300        -0.748668
 H        -0.503830         3.295710         0.453472
 H        -1.814049         2.636891         1.387639
