19
Iteration:  4820
 O         0.418791         0.554421         0.811217
 C        -0.767292         0.965637         0.143215
 C        -0.661611         1.569147        -1.255502
 C        -2.029851         2.225328        -0.836069
 C        -2.896012         2.808353        -1.945289
 O        -3.428098         1.363776        -2.125333
 C        -2.902796         1.040465        -0.735914
 C        -1.896526        -0.003317        -0.056598
 C        -1.519373         2.361181         0.591655
 H         1.128357         1.290503         0.913793
 H        -0.081637         2.464879        -1.363348
 H        -0.708100         0.799403        -2.079615
 H        -3.712955         3.553612        -1.887763
 H        -2.432583         2.956682        -2.896281
 H        -3.661042         1.126937         0.025125
 H        -2.397675        -0.238469         0.771891
 H        -1.584748        -0.983181        -0.433466
 H        -0.801343         3.135173         0.770806
 H        -2.132382         2.195162         1.556665
