19
Iteration:  3258
 O         0.303565         0.474500         0.926593
 C        -0.742123         0.988701         0.121786
 C        -0.626750         1.595833        -1.317042
 C        -1.922448         2.261642        -0.862903
 C        -2.969509         2.678970        -1.983451
 O        -3.554615         1.416796        -2.021891
 C        -2.890162         1.079016        -0.689836
 C        -1.895510        -0.053527        -0.111393
 C        -1.358135         2.443728         0.511203
 H         0.955762         1.204206         0.740065
 H         0.145425         2.310717        -1.404885
 H        -0.626472         0.978217        -2.192176
 H        -3.768033         3.461365        -1.513969
 H        -2.429002         3.130299        -2.871410
 H        -3.707106         1.116989         0.006004
 H        -2.306050        -0.366442         0.880432
 H        -1.508956        -0.943347        -0.743311
 H        -0.511197         3.064898         0.438588
 H        -1.994542         2.442315         1.390829
