19
Iteration:  4551charge 0 multiplicity 1
 O         0.376778         0.517681         0.790872
 C        -0.786737         1.064320         0.186329
 C        -0.614010         1.591364        -1.255469
 C        -1.940214         2.253196        -0.852721
 C        -3.029094         2.709209        -1.926101
 O        -3.348404         1.327980        -2.108361
 C        -2.940841         1.127044        -0.755933
 C        -1.958554        -0.073326        -0.128880
 C        -1.423858         2.396627         0.670024
 H         0.950241         1.256246         0.826995
 H         0.211490         2.257430        -1.486480
 H        -0.697500         0.801321        -2.081642
 H        -3.959961         3.240979        -1.541055
 H        -2.648572         3.140317        -2.846797
 H        -3.696716         1.265951        -0.032217
 H        -2.478527        -0.359563         0.699995
 H        -1.525484        -0.914972        -0.622664
 H        -0.614659         3.108862         0.833294
 H        -2.286038         2.444372         1.303586
