19
Iteration:   804charge 0 multiplicity 1
 O         0.407383         0.603513         0.720171
 C        -0.812198         0.984726         0.127082
 C        -0.747327         1.620334        -1.248063
 C        -2.013412         2.281106        -0.852203
 C        -2.867985         2.688260        -1.977997
 O        -3.407544         1.336085        -2.034691
 C        -2.910125         1.133836        -0.695211
 C        -1.902840        -0.028199         0.010662
 C        -1.395998         2.357506         0.589865
 H         0.448081        -0.398789         0.528503
 H         0.073656         2.247246        -1.417825
 H        -0.726978         1.008716        -2.094882
 H        -3.663980         3.322314        -1.561254
 H        -2.501347         3.101825        -2.945723
 H        -3.812844         1.290548         0.015621
 H        -2.350952        -0.299613         0.939297
 H        -1.595286        -0.773073        -0.723272
 H        -0.690899         3.093243         0.614068
 H        -1.989683         2.525201         1.450128
