19
Iteration:  3004charge 0 multiplicity 1
 O         0.345462         0.525431         0.707605
 C        -0.776397         1.024598         0.172906
 C        -0.666028         1.522159        -1.324883
 C        -1.977447         2.322492        -0.867156
 C        -2.960734         2.719618        -1.906180
 O        -3.380825         1.299241        -2.098692
 C        -2.878552         1.112331        -0.656724
 C        -2.007636         0.040061        -0.025007
 C        -1.292906         2.453813         0.541443
 H         0.335594        -0.173324         1.444362
 H         0.249348         2.107259        -1.385689
 H        -0.668665         0.682101        -2.013920
 H        -3.745467         3.144077        -1.267215
 H        -2.732114         3.369745        -2.782140
 H        -3.770280         1.311387        -0.012439
 H        -2.502710        -0.299351         1.029087
 H        -1.867824        -0.868658        -0.669598
 H        -0.537953         3.201420         0.529212
 H        -2.086043         2.590408         1.383544
