19
Iteration:  1731charge 0 multiplicity 1
 O         0.374492         0.650467         0.791195
 C        -0.758400         0.979723         0.135087
 C        -0.633229         1.450598        -1.329258
 C        -1.908619         2.234275        -0.888205
 C        -2.910447         2.720245        -1.977126
 O        -3.522235         1.391259        -1.968036
 C        -2.942898         1.067804        -0.683929
 C        -1.974485         0.042172        -0.067114
 C        -1.329579         2.443575         0.574672
 H         0.258290        -0.281432         1.034911
 H         0.150811         2.177844        -1.540654
 H        -0.708939         0.724634        -2.142842
 H        -3.667280         3.429400        -1.635279
 H        -2.399558         3.066242        -2.903344
 H        -3.710955         1.251514        -0.027445
 H        -2.481828        -0.343816         0.930054
 H        -1.653169        -0.771859        -0.745201
 H        -0.518049         3.037942         0.481980
 H        -2.027539         2.387862         1.431211
