19
Iteration:  4955
 O         0.368692         0.582350         0.829097
 C        -0.783395         0.954311         0.141624
 C        -0.643789         1.604248        -1.295462
 C        -1.973834         2.221037        -0.858996
 C        -2.893692         2.757988        -1.931295
 O        -3.352525         1.326976        -2.071868
 C        -2.937175         1.062595        -0.639176
 C        -2.006227        -0.023099        -0.179586
 C        -1.455316         2.388782         0.605986
 H         1.014464         1.290529         0.733774
 H         0.275638         2.194595        -1.374752
 H        -0.763328         0.933182        -2.132298
 H        -3.819736         3.227081        -1.585301
 H        -2.526106         3.239500        -2.899950
 H        -3.682757         1.124854         0.163602
 H        -2.412247        -0.466321         0.812559
 H        -1.752711        -0.796551        -0.913821
 H        -0.778634         3.303301         0.708115
 H        -2.105149         2.402446         1.477008
