19
Iteration:  4525charge 0 multiplicity 1
 O         0.263544         0.335164         0.878071
 C        -0.715023         1.012904         0.047000
 C        -0.641125         1.759476        -1.222114
 C        -1.988882         2.314684        -0.880040
 C        -3.064926         2.647650        -1.884822
 O        -3.312726         1.194872        -2.139128
 C        -2.906779         1.182827        -0.681787
 C        -1.893817         0.058905        -0.092258
 C        -1.402185         2.454185         0.567581
 H         1.051469         0.838249         0.740167
 H         0.184136         2.465919        -1.270016
 H        -0.576369         1.284872        -2.179795
 H        -3.992983         3.118357        -1.481860
 H        -2.712481         3.226794        -2.806130
 H        -3.727890         1.374403         0.091212
 H        -2.238352        -0.376024         0.945351
 H        -1.703539        -0.727056        -0.910329
 H        -0.612353         3.179832         0.652007
 H        -2.146405         2.549665         1.373890
