19
Iteration:  3123
 O         0.346655         0.407872         0.838046
 C        -0.751749         1.055667         0.140818
 C        -0.664645         1.523250        -1.329218
 C        -1.999774         2.334376        -0.846897
 C        -3.045350         2.729619        -1.979907
 O        -3.369794         1.282497        -2.103178
 C        -2.902651         1.164091        -0.683635
 C        -1.978381         0.015685        -0.004306
 C        -1.308774         2.477630         0.605799
 H         1.069267         0.511244         0.256137
 H         0.205906         2.171161        -1.302080
 H        -0.650877         0.746123        -2.075070
 H        -3.870347         3.452821        -1.634444
 H        -2.738557         3.228773        -2.994792
 H        -3.841782         1.363924        -0.063642
 H        -2.400796        -0.367627         0.988546
 H        -1.773990        -0.823207        -0.662039
 H        -0.475399         3.162700         0.626354
 H        -1.951779         2.496897         1.495190
