19
Iteration:  2177charge 0 multiplicity 1
 O         0.348461         0.515845         0.742760
 C        -0.746629         1.036276         0.102712
 C        -0.618535         1.517194        -1.282874
 C        -1.943314         2.277497        -0.886794
 C        -2.908060         2.629176        -1.999695
 O        -3.557924         1.264135        -1.884842
 C        -2.974894         1.186123        -0.592029
 C        -1.954489         0.131164        -0.130907
 C        -1.260638         2.412374         0.491151
 H         0.076575         0.114353         1.609104
 H         0.215889         2.306855        -1.352331
 H        -0.536950         0.891125        -2.250278
 H        -3.542388         3.443073        -1.765955
 H        -2.526231         2.976497        -3.013744
 H        -3.701404         1.503847         0.105518
 H        -2.291222        -0.418450         0.810710
 H        -1.673299        -0.557703        -0.894760
 H        -0.375234         3.008191         0.652206
 H        -2.033123         2.569470         1.176680
