19
Iteration:   891
 O         0.430772         0.485976         0.860357
 C        -0.767517         0.966647         0.162973
 C        -0.631622         1.588739        -1.302545
 C        -1.974342         2.273592        -0.867635
 C        -2.959986         2.695072        -1.965428
 O        -3.520648         1.316182        -2.002267
 C        -2.913401         1.137242        -0.678465
 C        -1.970924         0.102842        -0.093606
 C        -1.389097         2.356314         0.520354
 H         1.209211         0.962995         0.500837
 H         0.179812         2.369701        -1.372231
 H        -0.442450         0.935093        -2.203887
 H        -3.601510         3.488251        -1.673415
 H        -2.499778         2.962608        -2.946130
 H        -3.806308         1.286677         0.098500
 H        -2.336189        -0.597613         0.711106
 H        -1.870850        -0.717498        -0.956693
 H        -0.585826         3.142862         0.700167
 H        -2.144623         2.478606         1.333361
