19
Iteration:  1772charge 0 multiplicity 1
 O         0.396486         0.481184         0.848265
 C        -0.766495         1.004624         0.128278
 C        -0.724447         1.535557        -1.372102
 C        -1.976251         2.327413        -0.861352
 C        -3.091823         2.747361        -1.913392
 O        -3.314519         1.301843        -2.062959
 C        -2.865998         1.102071        -0.694216
 C        -2.016681         0.061226         0.026700
 C        -1.269371         2.462216         0.467963
 H         0.232601        -0.451878         0.841847
 H         0.227318         2.034456        -1.466859
 H        -0.859243         0.877881        -2.189218
 H        -3.940327         3.240348        -1.364456
 H        -2.879719         3.118011        -2.940247
 H        -3.802450         1.297729         0.030680
 H        -2.396781        -0.028212         0.949021
 H        -1.760398        -0.860847        -0.507895
 H        -0.354954         3.241868         0.559163
 H        -1.850884         2.715845         1.360673
