19
Iteration:  1281
 O         0.408790         0.458063         0.680697
 C        -0.791158         0.987635         0.145612
 C        -0.705649         1.685988        -1.285809
 C        -2.024062         2.295100        -0.811260
 C        -2.920154         2.697910        -2.018008
 O        -3.389932         1.313249        -2.058766
 C        -2.896316         1.070201        -0.668873
 C        -1.946366         0.019113        -0.025366
 C        -1.398021         2.414201         0.667334
 H         0.296766         0.466116         1.683764
 H         0.117148         2.380736        -1.594514
 H        -0.759441         0.959725        -2.146866
 H        -3.716094         3.425972        -1.833192
 H        -2.385206         3.130869        -2.890066
 H        -3.914362         1.245417        -0.159025
 H        -2.275851        -0.515708         0.764009
 H        -1.438862        -0.631952        -0.718785
 H        -0.588932         3.251541         0.584087
 H        -2.067864         2.496358         1.534204
