19
Iteration:  1670charge 0 multiplicity 1
 O         0.270183         0.405090         0.824278
 C        -0.686090         1.052537         0.080732
 C        -0.609301         1.653922        -1.326128
 C        -1.927812         2.318137        -0.941072
 C        -2.983680         2.670510        -2.002369
 O        -3.506821         1.245889        -1.964450
 C        -2.893977         1.143977        -0.636078
 C        -1.916183         0.121466        -0.016821
 C        -1.315072         2.454948         0.500236
 H        -0.046576        -0.481800         1.129280
 H         0.201542         2.419456        -1.245988
 H        -0.685250         0.957667        -2.210722
 H        -3.833747         3.343251        -1.737511
 H        -2.558366         3.046719        -2.954167
 H        -3.731731         1.233329         0.153915
 H        -2.223902        -0.359658         0.846775
 H        -1.720493        -0.725170        -0.650376
 H        -0.437969         3.227285         0.696965
 H        -1.806637         2.534496         1.531811
