19
Iteration:  2299
 O         0.443350         0.423140         0.657181
 C        -0.697924         1.030133         0.108200
 C        -0.648696         1.539106        -1.320972
 C        -1.978126         2.263452        -0.848463
 C        -2.861143         2.696971        -1.955581
 O        -3.474751         1.231847        -1.993910
 C        -3.006670         1.170533        -0.599525
 C        -2.013840         0.178879         0.026748
 C        -1.358075         2.496570         0.527053
 H         0.012516        -0.117076         1.406523
 H         0.116794         2.357312        -1.547936
 H        -0.562922         0.774938        -2.205147
 H        -3.727441         3.309079        -1.710084
 H        -2.608439         2.888280        -3.111723
 H        -3.764099         1.512746         0.072992
 H        -2.395807        -0.156778         1.036281
 H        -1.818122        -0.733614        -0.542436
 H        -0.571714         3.179039         0.542277
 H        -2.012857         2.592937         1.415162
