19
Iteration:   427charge 0 multiplicity 1
 O         0.428993         0.610665         0.836281
 C        -0.758418         1.015848         0.163571
 C        -0.702714         1.704947        -1.258391
 C        -2.041939         2.311614        -0.776328
 C        -2.916852         2.723574        -1.886517
 O        -3.358803         1.373450        -2.120213
 C        -2.989304         0.971899        -0.640158
 C        -1.938503        -0.033976        -0.264142
 C        -1.415624         2.326912         0.583664
 H         0.296799        -0.322875         0.641378
 H        -0.009879         2.520909        -1.143521
 H        -0.634127         1.206210        -2.204707
 H        -3.779523         3.294640        -1.582617
 H        -2.419450         3.043649        -2.793131
 H        -3.787585         0.987131         0.109023
 H        -2.212830        -0.711237         0.588708
 H        -1.501005        -0.650765        -1.106716
 H        -0.458407         2.973323         0.706015
 H        -2.068807         2.269622         1.491205
