19
Iteration:  3429
 O         0.351757         0.484119         0.878396
 C        -0.736630         1.019596         0.127211
 C        -0.702214         1.531721        -1.317803
 C        -1.990703         2.236633        -0.887918
 C        -2.945143         2.752160        -1.937160
 O        -3.521522         1.348019        -2.071886
 C        -2.906883         1.077552        -0.721162
 C        -1.836833         0.016899        -0.083457
 C        -1.322398         2.449260         0.557699
 H         0.549198         1.064684         1.650474
 H         0.198481         2.149822        -1.672137
 H        -0.904389         0.727498        -2.060682
 H        -3.734467         3.552170        -1.653506
 H        -2.525068         3.236435        -2.876441
 H        -3.805969         1.039205        -0.101348
 H        -2.279869        -0.431204         0.831220
 H        -1.515765        -0.772247        -0.640149
 H        -0.500710         3.153268         0.570415
 H        -2.090898         2.552626         1.418157
