19
Iteration:  4384
 O         0.204068         0.367965         0.751974
 C        -0.787888         1.018434         0.108352
 C        -0.570807         1.739775        -1.223577
 C        -1.944163         2.423611        -0.831944
 C        -3.047185         2.588845        -2.020517
 O        -3.332570         1.171905        -1.992122
 C        -2.837000         1.141753        -0.611803
 C        -1.981534         0.014206        -0.171587
 C        -1.369715         2.507461         0.610884
 H         0.965720         0.927167         0.850709
 H         0.279693         2.501170        -1.296894
 H        -0.414520         1.202575        -2.167834
 H        -3.807151         3.224789        -1.577718
 H        -2.644015         3.112960        -2.933607
 H        -3.785080         1.332290        -0.130008
 H        -2.395282        -0.482456         0.678492
 H        -1.622230        -0.665545        -0.920353
 H        -0.584143         3.219880         0.785280
 H        -2.095768         2.364910         1.460059
