19
Iteration:   473charge 0 multiplicity 1
 O         0.373030         0.527164         0.767033
 C        -0.767192         0.942101         0.141131
 C        -0.610426         1.713773        -1.286637
 C        -2.005309         2.256248        -0.868152
 C        -3.047439         2.787802        -1.850403
 O        -3.310417         1.302948        -2.110923
 C        -2.861313         1.081902        -0.723361
 C        -1.959967         0.029305        -0.080921
 C        -1.501154         2.319017         0.676360
 H         1.007004         0.370835         0.120570
 H         0.148402         2.539946        -1.189174
 H        -0.572088         1.059939        -2.174826
 H        -3.876319         3.224773        -1.408107
 H        -2.433514         3.200170        -2.723276
 H        -3.758856         1.260121        -0.051334
 H        -2.344036        -0.616338         0.811794
 H        -1.674023        -0.728702        -0.889351
 H        -0.656868         3.179309         0.875373
 H        -2.420030         2.262320         1.257133
