19
Iteration:  3558
 O         0.286438         0.560657         0.942053
 C        -0.680526         0.962606         0.067006
 C        -0.606740         1.549773        -1.402898
 C        -1.846125         2.293475        -0.902048
 C        -3.037311         2.711781        -1.895304
 O        -3.442014         1.210587        -2.004872
 C        -2.879013         1.195331        -0.688767
 C        -2.065524         0.131137        -0.041264
 C        -1.336486         2.396433         0.474829
 H         0.946013        -0.103147         0.580327
 H         0.317199         2.126093        -1.460100
 H        -0.858729         0.872267        -2.145139
 H        -3.887285         3.222093        -1.476579
 H        -2.818755         2.930504        -2.889890
 H        -3.693139         1.626195         0.060104
 H        -2.274546        -0.214915         1.080212
 H        -1.797137        -0.662934        -0.737133
 H        -0.536641         3.124657         0.567772
 H        -2.101548         2.450581         1.311980
