19
Iteration:   171
 O         0.283390         0.514179         0.781144
 C        -0.802828         0.998474         0.109991
 C        -0.609933         1.765667        -1.243296
 C        -2.060860         2.313784        -0.797969
 C        -3.013218         2.740445        -1.871055
 O        -3.341922         1.269706        -2.093893
 C        -2.911129         1.022222        -0.703788
 C        -1.871370        -0.009371        -0.228753
 C        -1.391344         2.317240         0.680462
 H         1.086025         0.766029         0.356228
 H         0.238194         2.483353        -1.041249
 H        -0.485266         1.125875        -2.140031
 H        -3.922227         3.251641        -1.479057
 H        -2.653353         3.179443        -2.760661
 H        -3.833249         1.170183        -0.090466
 H        -2.233894        -0.648508         0.616807
 H        -1.425891        -0.596874        -1.040858
 H        -0.576858         3.145839         0.721421
 H        -1.948517         2.390926         1.736227
