19
Iteration:  3756
 O         0.379066         0.638937         0.838389
 C        -0.820094         0.997626         0.214526
 C        -0.645482         1.537797        -1.240555
 C        -1.893878         2.221717        -0.928013
 C        -2.829901         2.636475        -1.993068
 O        -3.603176         1.354110        -1.995662
 C        -2.936702         1.105339        -0.659193
 C        -2.008835         0.011666        -0.053447
 C        -1.324556         2.455504         0.471474
 H         0.822420         0.167314         0.142715
 H         0.179543         2.139815        -1.489555
 H        -0.661787         0.788312        -2.029619
 H        -3.463801         3.555200        -1.851534
 H        -2.278422         2.810543        -2.918485
 H        -3.624718         1.351522         0.081355
 H        -2.325445        -0.559244         0.932784
 H        -1.634971        -0.772300        -0.724149
 H        -0.501081         3.191567         0.472959
 H        -2.036405         2.447828         1.389150
