19
Iteration:   221charge 0 multiplicity 1
 O         0.392180         0.641292         0.857554
 C        -0.730352         1.012615         0.131619
 C        -0.546811         1.721107        -1.225307
 C        -2.015690         2.290136        -0.848769
 C        -3.041081         2.758220        -1.884949
 O        -3.529939         1.361393        -2.059897
 C        -2.868902         1.048298        -0.765814
 C        -1.833278        -0.036362        -0.259329
 C        -1.452253         2.190162         0.639545
 H         0.539302        -0.375431         0.801748
 H         0.108867         2.592359        -1.011421
 H        -0.459377         0.989014        -2.097860
 H        -3.822988         3.495517        -1.665108
 H        -2.433344         3.052831        -2.848474
 H        -3.733636         1.128504        -0.057841
 H        -2.217489        -0.510462         0.641668
 H        -1.544012        -0.783582        -1.015338
 H        -0.717245         2.924716         1.015357
 H        -2.270813         2.238992         1.252951
