19
Iteration:  1162
 O         0.387449         0.491668         0.667426
 C        -0.774634         0.987261         0.129826
 C        -0.640472         1.666396        -1.219739
 C        -1.960797         2.355542        -0.867684
 C        -2.940033         2.598845        -2.006935
 O        -3.417922         1.278427        -2.025346
 C        -2.882888         1.160067        -0.614289
 C        -2.019677         0.011721        -0.095689
 C        -1.378800         2.435249         0.626170
 H         0.186701        -0.006217         1.438239
 H         0.188665         2.373624        -1.348217
 H        -0.458184         1.008924        -2.093113
 H        -3.760401         3.315725        -1.898523
 H        -2.455809         2.969524        -2.940263
 H        -3.671060         1.486983         0.156886
 H        -2.561758        -0.423424         0.953312
 H        -1.755028        -0.725800        -0.874746
 H        -0.602473         3.270924         0.686132
 H        -2.066320         2.422712         1.443344
