19
Iteration:  1028charge 0 multiplicity 1
 O         0.453627         0.527039         0.711993
 C        -0.782841         1.041285         0.190348
 C        -0.628232         1.604623        -1.253758
 C        -2.002136         2.241339        -0.882227
 C        -2.902573         2.702869        -2.118336
 O        -3.569260         1.325223        -1.963681
 C        -2.911326         1.065646        -0.629572
 C        -1.941594         0.023561        -0.064947
 C        -1.348615         2.462583         0.619780
 H         0.125969        -0.231579         1.232662
 H         0.053481         2.421482        -1.408739
 H        -0.611684         1.009956        -2.172077
 H        -3.586876         3.462013        -1.896605
 H        -2.383182         3.052319        -2.971526
 H        -3.868638         1.361023         0.011879
 H        -2.311391        -0.679170         0.663030
 H        -1.549741        -0.764134        -0.658039
 H        -0.414095         2.975636         0.716411
 H        -2.010830         2.653114         1.396682
