19
Iteration:  1297
 O         0.384600         0.379887         0.709373
 C        -0.696377         1.070161         0.091282
 C        -0.626752         1.721201        -1.265210
 C        -2.015350         2.342112        -0.815200
 C        -2.945508         2.702887        -1.934556
 O        -3.340702         1.157453        -2.068573
 C        -3.014818         1.141690        -0.617415
 C        -1.984108         0.082129        -0.139353
 C        -1.376389         2.440161         0.575657
 H         0.274818         0.267345         1.637904
 H         0.100378         2.510021        -1.139346
 H        -0.602768         1.156291        -2.183685
 H        -3.909466         3.233861        -1.753274
 H        -2.527284         2.936673        -2.913031
 H        -3.768082         1.374024         0.070811
 H        -2.301570        -0.231607         1.022115
 H        -1.936915        -0.723388        -0.916143
 H        -0.662436         3.095560         0.934224
 H        -2.064057         2.369616         1.456531
