19
Iteration:   141
 O         0.453777         0.328769         0.757140
 C        -0.717032         0.963385         0.084731
 C        -0.665195         1.847358        -1.342499
 C        -2.089859         2.417972        -0.757926
 C        -3.146848         2.723759        -1.912714
 O        -3.201744         1.229718        -2.105457
 C        -2.910045         1.120320        -0.704387
 C        -1.915873         0.084348        -0.106783
 C        -1.467393         2.285947         0.670361
 H         0.789560         0.893305         1.558211
 H         0.225561         2.395401        -1.483352
 H        -0.706718         1.281507        -2.232134
 H        -4.155157         3.145710        -1.585034
 H        -2.757371         3.204236        -2.782497
 H        -3.912510         1.252835        -0.243985
 H        -2.384853        -0.303445         0.829392
 H        -1.723363        -0.791340        -0.780965
 H        -0.850441         3.066635         0.909231
 H        -2.211800         2.190086         1.430533
