19
Iteration:  2815charge 0 multiplicity 1
 O         0.492216         0.501959         0.655168
 C        -0.708118         0.973159         0.133596
 C        -0.697078         1.585527        -1.299217
 C        -1.973377         2.274996        -0.845775
 C        -2.828091         2.665634        -2.093365
 O        -3.474861         1.292201        -1.927118
 C        -2.923165         1.166500        -0.596674
 C        -2.061892         0.076133         0.017962
 C        -1.466601         2.473955         0.578088
 H         0.387982        -0.261160         1.195676
 H         0.046614         2.348801        -1.381717
 H        -0.798049         1.194931        -2.267452
 H        -3.486452         3.470523        -1.929001
 H        -2.174038         2.755794        -2.992240
 H        -3.776626         1.451295         0.047324
 H        -2.577108        -0.397999         0.958162
 H        -1.913753        -0.873150        -0.644769
 H        -0.567930         3.186484         0.426435
 H        -2.128360         2.425657         1.425763
