19
Iteration:   369
 O         0.375006         0.437196         0.810001
 C        -0.676996         1.053919         0.112176
 C        -0.527014         1.714197        -1.252817
 C        -2.036106         2.208348        -0.815918
 C        -3.085333         2.768403        -1.862081
 O        -3.448222         1.352105        -2.158588
 C        -2.879448         1.003557        -0.677005
 C        -1.825954         0.012738        -0.205416
 C        -1.463932         2.400735         0.609747
 H         0.034714        -0.130456         1.530319
 H        -0.022665         2.641151        -1.082688
 H        -0.262225         1.360565        -2.237212
 H        -3.988642         3.387822        -1.511312
 H        -2.713418         3.311344        -2.672175
 H        -3.806889         1.066715        -0.089887
 H        -2.201376        -0.530822         0.635761
 H        -1.613412        -0.814423        -0.896144
 H        -0.763917         3.185259         0.690161
 H        -2.160980         2.544698         1.520170
