19
Iteration:  4698charge 0 multiplicity 1
 O         0.441772         0.623515         0.810727
 C        -0.763476         0.983949         0.190297
 C        -0.659744         1.608463        -1.274955
 C        -2.010141         2.268457        -0.848685
 C        -2.877534         2.788766        -1.937333
 O        -3.384866         1.282488        -2.073082
 C        -2.940846         1.063262        -0.737029
 C        -2.049709        -0.050865        -0.135376
 C        -1.471616         2.294497         0.583726
 H         0.993089         1.410773         1.013074
 H         0.237106         2.288071        -1.546980
 H        -0.936497         0.997712        -2.156395
 H        -3.569661         3.516056        -1.474239
 H        -2.310687         3.142677        -2.819250
 H        -3.722095         1.265820         0.006309
 H        -2.486165        -0.623787         0.707728
 H        -1.676678        -0.839005        -0.762735
 H        -0.697308         3.128935         0.795046
 H        -2.079339         2.329330         1.566441
