19
Iteration:  2741charge 0 multiplicity 1
 O         0.363748         0.341918         0.819437
 C        -0.785585         1.008212         0.095124
 C        -0.628590         1.555109        -1.375252
 C        -1.942402         2.269991        -0.950861
 C        -3.062907         2.730073        -1.911191
 O        -3.417452         1.267388        -1.980492
 C        -2.880016         1.166935        -0.633447
 C        -1.978471         0.074285        -0.052772
 C        -1.300382         2.563191         0.517215
 H         0.331336         0.673009         1.754089
 H         0.291466         2.111289        -1.620737
 H        -0.581585         0.747659        -2.148943
 H        -3.860506         3.330244        -1.381052
 H        -2.859824         3.143216        -2.989598
 H        -3.617731         1.570012         0.140186
 H        -2.275793        -0.425168         0.774428
 H        -1.686343        -0.675114        -0.759157
 H        -0.549929         3.405816         0.413432
 H        -2.003806         2.544505         1.347575
