19
Iteration:   420
 O         0.369549         0.594853         0.820548
 C        -0.772324         1.012372         0.082441
 C        -0.676894         1.698959        -1.201784
 C        -2.003739         2.291449        -0.807327
 C        -2.976490         2.718152        -1.892520
 O        -3.318837         1.345700        -2.042651
 C        -2.939334         1.038504        -0.678161
 C        -1.911583        -0.074800        -0.270486
 C        -1.445350         2.381062         0.597166
 H         0.402299        -0.332086         0.880686
 H         0.175310         2.481477        -1.260634
 H        -0.723234         1.194241        -2.219376
 H        -3.833630         3.215342        -1.386338
 H        -2.497270         3.233734        -2.865365
 H        -3.819103         1.207828        -0.006307
 H        -2.106790        -0.876492         0.508193
 H        -1.709065        -0.722705        -1.130107
 H        -0.561095         3.099881         0.835218
 H        -2.041597         2.266102         1.468921
