19
Iteration:  4287charge 0 multiplicity 1
 O         0.282070         0.377502         0.865560
 C        -0.762780         1.041932         0.077701
 C        -0.532985         1.652020        -1.338361
 C        -1.953157         2.297688        -0.855307
 C        -3.063886         2.663739        -1.905881
 O        -3.335319         1.208704        -2.045163
 C        -2.927648         1.140034        -0.676869
 C        -1.965314         0.154716        -0.104366
 C        -1.374283         2.412263         0.553591
 H         1.004780         0.988376         0.984003
 H         0.249324         2.432316        -1.396961
 H        -0.435452         1.028838        -2.243783
 H        -3.897227         3.060026        -1.345798
 H        -3.017511         3.222850        -2.840807
 H        -3.714777         1.449950         0.028087
 H        -2.409475        -0.268940         0.739664
 H        -1.814771        -0.583263        -0.853101
 H        -0.612014         3.239806         0.629315
 H        -2.152555         2.286591         1.388883
