19
Iteration:  4175
 O         0.323328         0.346980         0.898520
 C        -0.685821         1.147924         0.150855
 C        -0.699683         1.606797        -1.308320
 C        -1.995053         2.239436        -0.848416
 C        -3.100344         2.738810        -1.822493
 O        -3.324243         1.293585        -2.183350
 C        -2.940069         1.054298        -0.753330
 C        -1.937158         0.043500         0.023653
 C        -1.322330         2.523049         0.491494
 H         1.239963         0.440785         0.445084
 H         0.164368         2.322484        -1.414920
 H        -0.570551         0.969666        -2.156383
 H        -3.836729         3.127749        -1.166098
 H        -2.866198         3.107800        -2.862383
 H        -3.797742         1.424424        -0.278573
 H        -2.430030        -0.462920         0.856241
 H        -1.513469        -0.714762        -0.536470
 H        -0.600382         3.356375         0.419984
 H        -2.223192         2.524286         1.273493
