19
Iteration:  2128
 O         0.344065         0.440107         0.707988
 C        -0.751129         1.075780         0.141602
 C        -0.660651         1.528085        -1.337683
 C        -1.951972         2.255248        -0.904150
 C        -3.025298         2.650499        -1.858824
 O        -3.367933         1.268854        -2.117804
 C        -2.961567         1.098071        -0.575881
 C        -1.999312         0.151606         0.061035
 C        -1.245406         2.520096         0.457537
 H         0.100574        -0.131349         1.420893
 H         0.201173         2.137622        -1.469716
 H        -0.513595         0.674455        -1.943487
 H        -3.912258         3.288512        -1.389003
 H        -2.881866         3.266481        -2.717552
 H        -3.792082         1.539984        -0.036169
 H        -2.396693        -0.169406         0.998341
 H        -1.826421        -0.650995        -0.717741
 H        -0.291911         3.241733         0.300246
 H        -1.770852         2.700082         1.519971
