19
Iteration:  1639charge 0 multiplicity 1
 O         0.423214         0.552225         0.767890
 C        -0.729053         1.020487         0.130108
 C        -0.674807         1.466722        -1.284965
 C        -1.974260         2.304367        -0.913913
 C        -2.980628         2.771429        -1.869684
 O        -3.347143         1.272102        -2.083523
 C        -2.938199         1.152880        -0.641538
 C        -2.080051         0.028975        -0.025281
 C        -1.336262         2.491606         0.524060
 H         0.339815        -0.196353         1.380831
 H         0.267916         1.971069        -1.525480
 H        -0.827659         0.722814        -2.056512
 H        -3.918953         3.161182        -1.428734
 H        -2.619821         3.236269        -2.800723
 H        -3.779558         1.333227        -0.085770
 H        -2.523478        -0.405807         0.866000
 H        -1.865081        -0.717358        -0.822148
 H        -0.293302         2.989448         0.397796
 H        -2.044974         2.482817         1.318286
