19
Iteration:  3998charge 0 multiplicity 1
 O         0.453879         0.483710         0.722396
 C        -0.769119         1.050431         0.194271
 C        -0.729245         1.529638        -1.207390
 C        -1.972175         2.282479        -0.845493
 C        -2.820446         2.654749        -2.044703
 O        -3.466806         1.295961        -2.014590
 C        -2.934241         1.094569        -0.643918
 C        -1.974495         0.089840        -0.034455
 C        -1.476557         2.421115         0.530299
 H         1.180800         1.008847         0.248762
 H         0.011081         2.263295        -1.374706
 H        -0.775941         0.683620        -1.895607
 H        -3.674166         3.459029        -1.798494
 H        -2.349064         2.888230        -3.049032
 H        -3.729355         1.347093         0.161799
 H        -2.481610        -0.103753         0.858007
 H        -1.674615        -0.665869        -0.636862
 H        -0.647798         3.219045         0.621084
 H        -2.152442         2.540796         1.381157
