19
Iteration:   229charge 0 multiplicity 1
 O         0.327257         0.669639         0.853559
 C        -0.715621         0.935438         0.055476
 C        -0.627393         1.770797        -1.244056
 C        -1.989484         2.282898        -0.838097
 C        -3.034050         2.736498        -1.893135
 O        -3.429807         1.339261        -2.021950
 C        -2.857561         1.077419        -0.735832
 C        -1.882689        -0.005558        -0.285383
 C        -1.426638         2.190978         0.632422
 H         0.305642        -0.351341         0.972250
 H         0.043505         2.532963        -1.031547
 H        -0.155368         1.160748        -1.962178
 H        -3.865459         3.414161        -1.586043
 H        -2.676805         3.086726        -2.831247
 H        -3.550322         1.104390         0.109340
 H        -2.284704        -0.511607         0.601176
 H        -1.542066        -0.863588        -0.941241
 H        -0.676152         2.878496         0.837249
 H        -2.170862         2.151696         1.448174
