19
Iteration:    11
 O         0.486556         0.399288         0.776410
 C        -0.654401         1.028133         0.163915
 C        -0.644133         1.600055        -1.234533
 C        -1.999449         2.338514        -0.812508
 C        -3.038887         2.758692        -1.900934
 O        -3.442268         1.228265        -2.067030
 C        -2.908082         1.066622        -0.726155
 C        -1.960848         0.060559        -0.215550
 C        -1.450453         2.502322         0.577242
 H         0.368836         0.451738         1.701575
 H         0.097419         2.392358        -1.368414
 H        -0.667424         0.960520        -2.103970
 H        -3.950315         3.229753        -1.451146
 H        -2.699071         3.210509        -2.828506
 H        -3.680321         1.163098         0.042816
 H        -2.266598        -0.500589         0.706050
 H        -1.667895        -0.630100        -1.019271
 H        -0.788095         3.328667         0.609082
 H        -2.186453         2.683583         1.360340
