19
Iteration:  2578charge 0 multiplicity 1
 O         0.532139         0.562510         0.659837
 C        -0.751024         0.970456         0.124763
 C        -0.640943         1.507530        -1.306571
 C        -1.914922         2.232686        -0.849637
 C        -2.829560         2.624094        -1.983737
 O        -3.527095         1.329332        -1.970231
 C        -2.997569         1.144653        -0.547910
 C        -2.108243         0.080903        -0.062272
 C        -1.404008         2.476145         0.532308
 H         0.271609         0.280729         1.538456
 H         0.213402         2.290923        -1.273371
 H        -0.459515         0.852975        -2.203529
 H        -3.557943         3.450746        -1.816581
 H        -2.335912         2.804554        -2.963751
 H        -3.711258         1.624315         0.249082
 H        -2.469483        -0.536993         0.856175
 H        -2.128185        -0.716512        -0.843937
 H        -0.586637         3.205154         0.537477
 H        -2.172008         2.632917         1.221473
