19
Iteration:   528
 O         0.312163         0.360730         0.822474
 C        -0.646395         1.057404         0.095441
 C        -0.701194         1.736492        -1.279302
 C        -2.097062         2.331607        -0.820303
 C        -2.978018         2.753422        -1.920553
 O        -3.416786         1.308571        -2.090289
 C        -2.933989         1.057458        -0.668955
 C        -1.799416        -0.004286        -0.186100
 C        -1.416061         2.343741         0.599762
 H         0.899234         0.965102         1.289463
 H         0.125260         2.450275        -1.472504
 H        -0.735297         1.054796        -2.149066
 H        -3.726590         3.412987        -1.580414
 H        -2.463627         3.270352        -2.804178
 H        -3.715982         0.912842         0.073306
 H        -2.176672        -0.351904         0.832758
 H        -1.408869        -0.803864        -0.863310
 H        -0.833464         3.371286         0.825829
 H        -2.042513         2.287054         1.509913
