19
Iteration:  1342
 O         0.413454         0.527388         0.765133
 C        -0.759327         1.022040         0.138887
 C        -0.685898         1.564449        -1.254731
 C        -1.992480         2.276873        -0.837321
 C        -2.976399         2.726053        -1.912243
 O        -3.413577         1.301103        -2.076149
 C        -2.898308         1.081082        -0.746301
 C        -1.900843         0.045414        -0.097066
 C        -1.388229         2.480809         0.579630
 H         0.137970        -0.268437         1.245873
 H         0.060096         2.312582        -1.364074
 H        -0.720070         0.784093        -2.001241
 H        -3.796637         3.319247        -1.459939
 H        -2.495993         3.153315        -2.797870
 H        -3.662337         1.063315        -0.069176
 H        -2.513072        -0.393407         0.846193
 H        -1.554205        -0.793575        -0.801509
 H        -0.710322         3.302989         0.764536
 H        -2.133028         2.504708         1.378624
