19
Iteration:  2305charge 0 multiplicity 1
 O         0.482147         0.440822         0.687693
 C        -0.726954         0.979218         0.080291
 C        -0.642279         1.589269        -1.348554
 C        -1.982101         2.248266        -0.885470
 C        -2.868513         2.709549        -1.997073
 O        -3.491740         1.256845        -1.960043
 C        -2.962286         1.188171        -0.596292
 C        -2.026756         0.144373         0.046585
 C        -1.388972         2.455285         0.518331
 H         0.222522        -0.106233         1.436160
 H         0.044634         2.361417        -1.573103
 H        -0.702260         0.831272        -2.060779
 H        -3.761200         3.316752        -1.766053
 H        -2.194217         2.873720        -2.793535
 H        -3.824098         1.466408         0.149472
 H        -2.457860        -0.096532         1.007532
 H        -1.958957        -0.824994        -0.487093
 H        -0.515735         3.238952         0.537636
 H        -2.133267         2.601593         1.309416
