19
Iteration:    68charge 0 multiplicity 1
 O         0.322144         0.611472         0.956804
 C        -0.695664         1.029278         0.032453
 C        -0.641153         1.700805        -1.408550
 C        -1.938221         2.316596        -0.810356
 C        -2.976245         2.671401        -1.890226
 O        -3.448729         1.316337        -2.027355
 C        -2.910083         1.070383        -0.659642
 C        -1.929858         0.001205        -0.218520
 C        -1.440959         2.242783         0.647211
 H         1.080650         0.356222         0.344136
 H         0.162507         2.445518        -1.544798
 H        -0.707528         1.146171        -2.377502
 H        -3.803021         3.303562        -1.627572
 H        -2.583366         3.039065        -2.891788
 H        -3.748334         1.343288        -0.050421
 H        -2.109096        -0.510456         0.692582
 H        -1.697754        -0.728967        -1.000808
 H        -0.659798         2.982064         1.052357
 H        -2.140256         1.989302         1.455087
