19
Iteration:   195
 O         0.453709         0.492882         0.863537
 C        -0.652143         1.025426         0.181561
 C        -0.688226         1.688605        -1.228868
 C        -2.036372         2.211249        -0.839765
 C        -2.938488         2.735918        -1.879554
 O        -3.482874         1.412256        -2.063767
 C        -2.865736         0.990254        -0.749333
 C        -1.838603        -0.094124        -0.290589
 C        -1.591148         2.475338         0.650782
 H         1.097781        -0.030970         0.255655
 H        -0.091427         2.579985        -1.216968
 H        -0.581723         1.021093        -2.038742
 H        -3.658510         3.456664        -1.390424
 H        -2.568268         3.119884        -2.782331
 H        -3.758151         1.085234        -0.101744
 H        -2.309227        -0.683114         0.523312
 H        -1.404625        -0.741217        -1.110588
 H        -1.067144         3.384479         0.780782
 H        -2.475294         2.531014         1.381133
