19
Iteration:  4999
 O         0.236598         0.272383         0.818016
 C        -0.698026         1.134424         0.113813
 C        -0.618830         1.693097        -1.267138
 C        -2.000899         2.332811        -0.793255
 C        -3.130964         2.683772        -2.004857
 O        -3.340671         1.218549        -2.097113
 C        -2.884638         1.102829        -0.799438
 C        -1.868272         0.076966        -0.045854
 C        -1.369631         2.479721         0.662594
 H         1.112067         0.634359         1.052671
 H         0.104922         2.503338        -1.464704
 H        -0.672153         1.026674        -2.110962
 H        -3.839863         3.348922        -1.430948
 H        -2.829164         3.031186        -3.058839
 H        -3.848490         1.309318        -0.164969
 H        -2.255597        -0.374183         0.923791
 H        -1.403599        -0.645036        -0.714183
 H        -0.654480         3.402898         0.625434
 H        -1.811355         2.448490         1.636908
