19
Iteration:  4376charge 0 multiplicity 1
 O         0.278569         0.377333         0.748083
 C        -0.793585         1.023409         0.141362
 C        -0.586412         1.780399        -1.227210
 C        -2.002518         2.380346        -0.884386
 C        -3.001256         2.659722        -2.004720
 O        -3.362210         1.155630        -1.982840
 C        -2.783966         1.172772        -0.689791
 C        -2.010975         0.037986        -0.143820
 C        -1.420008         2.404904         0.625109
 H         1.026160         1.003079         0.822484
 H         0.319113         2.401856        -1.267251
 H        -0.510314         0.927055        -2.015462
 H        -3.902424         3.218213        -1.767586
 H        -2.624337         2.951841        -2.941672
 H        -3.597980         1.505638         0.086295
 H        -2.355519        -0.385414         0.732995
 H        -1.743847        -0.716076        -0.911581
 H        -0.512090         3.067838         0.961852
 H        -2.193569         2.570038         1.478045
