19
Iteration:   233
 O         0.322274         0.650105         0.864035
 C        -0.755225         0.933053         0.015550
 C        -0.642559         1.784386        -1.242652
 C        -1.974506         2.277224        -0.822242
 C        -3.027713         2.730084        -1.894962
 O        -3.392346         1.323449        -2.009534
 C        -2.854149         1.070343        -0.717917
 C        -1.896932        -0.019548        -0.291852
 C        -1.445733         2.230972         0.633996
 H         0.311070        -0.268015         1.074960
 H         0.179385         2.582037        -1.132559
 H        -0.141930         1.309632        -2.165890
 H        -3.873293         3.305553        -1.483371
 H        -2.710976         3.183136        -2.941864
 H        -3.592765         1.179280         0.121624
 H        -2.314138        -0.514882         0.593091
 H        -1.589624        -0.802873        -0.975174
 H        -0.592013         2.955186         0.783463
 H        -2.008574         2.019651         1.515003
