19
Iteration:  2301
 O         0.459424         0.427956         0.668126
 C        -0.707610         1.010070         0.097407
 C        -0.645833         1.556468        -1.330158
 C        -1.981571         2.256834        -0.860877
 C        -2.858122         2.704412        -1.962881
 O        -3.482201         1.238186        -1.982896
 C        -2.998006         1.179336        -0.594585
 C        -2.017228         0.176257         0.034988
 C        -1.370020         2.484817         0.526353
 H         0.069624        -0.104162         1.403360
 H         0.102159         2.383437        -1.579265
 H        -0.595907         0.774901        -2.170731
 H        -3.757763         3.291330        -1.723313
 H        -2.451547         2.872870        -3.049719
 H        -3.737895         1.482941         0.064293
 H        -2.431142        -0.137176         1.018658
 H        -1.858370        -0.812107        -0.541040
 H        -0.584046         3.163250         0.531262
 H        -2.058275         2.603246         1.378102
