19
Iteration:  4853
 O         0.312664         0.432999         0.865004
 C        -0.736697         1.038240         0.143774
 C        -0.660639         1.639512        -1.280527
 C        -2.066626         2.294255        -0.813196
 C        -3.008857         2.748130        -1.910728
 O        -3.307571         1.249585        -2.192031
 C        -2.919771         1.049053        -0.648231
 C        -1.951801         0.005139        -0.120245
 C        -1.358666         2.460332         0.589766
 H         1.022726         1.122995         0.894367
 H         0.020761         2.467866        -1.522873
 H        -0.646189         1.052061        -2.241972
 H        -3.912419         3.288789        -1.509427
 H        -2.662243         3.129001        -2.859104
 H        -3.588758         1.241868         0.156316
 H        -2.280242        -0.398783         0.734411
 H        -1.651824        -0.747693        -0.859194
 H        -0.570784         3.183867         0.590078
 H        -1.991074         2.508779         1.543383
