19
Iteration:  4850charge 0 multiplicity 1
 O         0.317202         0.461767         0.859075
 C        -0.739862         1.028101         0.132316
 C        -0.660878         1.653937        -1.295477
 C        -2.053490         2.269475        -0.830405
 C        -2.976888         2.755819        -1.894707
 O        -3.333091         1.258583        -2.216335
 C        -2.929439         1.049983        -0.644201
 C        -1.941219        -0.014696        -0.104595
 C        -1.364650         2.463068         0.614383
 H         1.049230         1.042749         0.957023
 H        -0.091026         2.594714        -1.569592
 H        -0.602405         0.940773        -2.158783
 H        -3.932358         3.310626        -1.555582
 H        -2.595579         3.139488        -2.846799
 H        -3.686462         1.173564         0.176762
 H        -2.296850        -0.452610         0.846774
 H        -1.733738        -0.789869        -0.793572
 H        -0.499594         3.148481         0.631198
 H        -1.974700         2.486609         1.519470
