19
Iteration:  3048charge 0 multiplicity 1
 O         0.449626         0.517939         0.835523
 C        -0.690574         1.024474         0.133846
 C        -0.620127         1.505853        -1.321966
 C        -1.927207         2.165540        -0.885122
 C        -2.893225         2.767914        -1.990015
 O        -3.556084         1.368398        -2.031222
 C        -3.019654         1.103834        -0.669520
 C        -2.011836         0.088842        -0.103268
 C        -1.349606         2.361655         0.606829
 H         0.560571         1.219315         1.577737
 H         0.187162         2.143194        -1.635586
 H        -0.887978         0.845517        -2.122004
 H        -3.643819         3.488061        -1.624944
 H        -2.464551         2.939881        -2.996340
 H        -3.830257         1.480889         0.096397
 H        -2.361532        -0.734506         0.683310
 H        -1.580656        -0.540622        -0.894711
 H        -0.636995         3.118585         0.586583
 H        -2.105222         2.234610         1.432960
