19
Iteration:  2239charge 0 multiplicity 1
 O         0.356461         0.508317         0.725192
 C        -0.684250         1.068756         0.078466
 C        -0.631189         1.485006        -1.417854
 C        -1.955004         2.236530        -0.837419
 C        -2.954393         2.697154        -1.928832
 O        -3.456251         1.318402        -2.062433
 C        -2.971904         1.136677        -0.558059
 C        -2.012133         0.111844         0.035493
 C        -1.286863         2.384979         0.490881
 H         0.126631         0.428150         1.683946
 H         0.039702         2.295369        -1.513655
 H        -0.599258         0.695110        -2.091234
 H        -3.841815         3.338430        -1.581500
 H        -2.524565         2.987334        -2.867799
 H        -3.783623         1.566319         0.186243
 H        -2.321434        -0.275681         0.976874
 H        -1.779690        -0.739406        -0.649702
 H        -0.402752         3.132307         0.756362
 H        -1.978854         2.487959         1.355618
