19
Iteration:   280
 O         0.393365         0.432983         0.670651
 C        -0.708122         1.042646         0.208986
 C        -0.624263         1.721822        -1.167726
 C        -2.091403         2.323634        -0.744902
 C        -3.093084         2.760059        -1.886581
 O        -3.313884         1.331918        -2.200018
 C        -2.910842         1.002011        -0.779985
 C        -1.825251        -0.001303        -0.092084
 C        -1.445305         2.399464         0.623545
 H        -0.048952        -0.232995         1.210924
 H         0.268858         2.429225        -1.224915
 H        -0.680686         1.349780        -2.212224
 H        -4.007805         3.285972        -1.501657
 H        -2.772658         3.276884        -2.791536
 H        -3.795439         0.830054        -0.138773
 H        -2.134369        -0.506071         0.852639
 H        -1.392074        -0.807308        -0.668638
 H        -0.769546         3.277347         0.685801
 H        -2.165188         2.476305         1.535342
