19
Iteration:  2862charge 0 multiplicity 1
 O         0.401533         0.344040         0.858082
 C        -0.699977         1.038504         0.131818
 C        -0.696515         1.638003        -1.381653
 C        -1.947672         2.333560        -0.882122
 C        -3.065282         2.736927        -1.942234
 O        -3.422699         1.223665        -2.012094
 C        -2.897443         1.148251        -0.659026
 C        -2.003327         0.070844        -0.097877
 C        -1.256490         2.512129         0.497278
 H         0.171891         0.354291         1.852552
 H         0.184526         2.321535        -1.539146
 H        -0.658202         0.773063        -2.091026
 H        -3.935576         3.222112        -1.528253
 H        -2.814736         2.987348        -2.989621
 H        -3.607269         1.572879         0.164305
 H        -2.399618        -0.341871         0.798361
 H        -1.830100        -0.778533        -0.715730
 H        -0.395749         3.196198         0.577161
 H        -2.183149         2.462992         1.159513
