19
Iteration:  1511charge 0 multiplicity 1
 O         0.342213         0.630858         0.907576
 C        -0.801750         0.974750         0.119691
 C        -0.638683         1.519953        -1.278157
 C        -1.962865         2.222633        -0.872326
 C        -2.939375         2.744464        -1.857806
 O        -3.505055         1.388670        -2.131535
 C        -2.894185         1.090657        -0.722069
 C        -1.910541         0.019966        -0.079733
 C        -1.345075         2.362300         0.522363
 H         0.844922        -0.012122         0.310156
 H         0.104271         2.334066        -1.589745
 H        -0.635836         0.709440        -2.050128
 H        -3.784928         3.348281        -1.519609
 H        -2.601027         3.277777        -2.773230
 H        -3.789080         1.179612        -0.108477
 H        -2.325153        -0.352621         0.987688
 H        -1.531703        -0.904745        -0.670735
 H        -0.501010         2.956363         0.750907
 H        -1.884111         2.538347         1.486123
