19
Iteration:  2915charge 0 multiplicity 1
 O         0.540819         0.579346         0.746806
 C        -0.766086         0.913947         0.208079
 C        -0.667705         1.488186        -1.318248
 C        -1.913130         2.228956        -0.837819
 C        -2.943042         2.739729        -1.960749
 O        -3.486125         1.407299        -2.033021
 C        -2.950240         1.089290        -0.704552
 C        -2.032472        -0.012934        -0.069086
 C        -1.388733         2.455032         0.532771
 H         0.411461         0.615435         1.760138
 H         0.249765         2.026862        -1.418215
 H        -0.854436         0.699193        -1.991909
 H        -3.753007         3.329229        -1.509440
 H        -2.753804         3.140909        -3.001940
 H        -3.735182         1.343502        -0.013248
 H        -2.548077        -0.531488         0.852812
 H        -1.736958        -0.708333        -0.920971
 H        -0.631966         3.329220         0.527728
 H        -2.191450         2.739319         1.306578
