19
Iteration:   519
 O         0.294641         0.355353         0.834163
 C        -0.723997         1.067554         0.133284
 C        -0.693701         1.720494        -1.294275
 C        -2.068728         2.295705        -0.744916
 C        -3.064151         2.821161        -1.952917
 O        -3.400692         1.271010        -2.127323
 C        -2.837827         1.089296        -0.682458
 C        -1.806881        -0.018197        -0.162419
 C        -1.395439         2.388484         0.627547
 H         1.112030         0.870258         0.975177
 H         0.072772         2.525225        -1.294056
 H        -0.803025         1.044571        -2.195307
 H        -3.908819         3.293498        -1.629402
 H        -2.578804         3.217888        -2.893835
 H        -3.724079         1.229116        -0.013046
 H        -2.147412        -0.656939         0.687028
 H        -1.372847        -0.701962        -0.912048
 H        -0.596669         3.171267         0.500856
 H        -1.887534         2.201111         1.601174
