19
Iteration:    71
 O         0.350460         0.622805         0.953918
 C        -0.682846         1.011161         0.051979
 C        -0.662755         1.701495        -1.395112
 C        -1.945001         2.315295        -0.807549
 C        -2.983358         2.671563        -1.918113
 O        -3.439677         1.334612        -2.042478
 C        -2.915714         1.082166        -0.640013
 C        -1.931085        -0.011369        -0.217828
 C        -1.433773         2.225185         0.634330
 H         1.074814         0.283206         0.359360
 H         0.147971         2.440289        -1.577976
 H        -0.705012         1.163601        -2.373194
 H        -3.824333         3.293063        -1.602388
 H        -2.571249         2.999211        -2.896025
 H        -3.819537         1.260510        -0.010005
 H        -2.172686        -0.551076         0.715007
 H        -1.749855        -0.683845        -1.061409
 H        -0.709210         3.040249         1.113420
 H        -2.203747         2.090931         1.487736
