19
Iteration:  2808
 O         0.540253         0.499455         0.693035
 C        -0.719767         0.989974         0.125551
 C        -0.759377         1.571432        -1.311498
 C        -1.987332         2.274817        -0.791464
 C        -2.838414         2.656043        -2.080396
 O        -3.469206         1.321444        -2.004984
 C        -2.938624         1.184615        -0.597147
 C        -2.032969         0.065291         0.016698
 C        -1.465499         2.443058         0.544072
 H         0.435388        -0.300742         1.280856
 H         0.197161         2.198260        -1.391689
 H        -0.816405         1.001995        -2.344936
 H        -3.558267         3.518224        -1.975712
 H        -2.438567         2.719808        -3.130082
 H        -3.646878         1.508878         0.293931
 H        -2.459641        -0.185519         0.915672
 H        -1.934192        -0.793730        -0.563428
 H        -0.615354         3.131729         0.712088
 H        -2.006343         2.443315         1.542926
