19
Iteration:  2727charge 0 multiplicity 1
 O         0.302319         0.407986         0.766598
 C        -0.684099         1.056098         0.156547
 C        -0.618942         1.548010        -1.287652
 C        -1.911017         2.342423        -0.902148
 C        -2.998647         2.650552        -1.963064
 O        -3.556133         1.285017        -1.976531
 C        -2.885136         1.162059        -0.646150
 C        -1.937761         0.131227        -0.099974
 C        -1.288949         2.394354         0.478739
 H         0.408562         0.716372         1.645237
 H         0.150795         2.271733        -1.421817
 H        -0.758026         0.866874        -2.084838
 H        -3.795251         3.277476        -1.614233
 H        -2.582563         2.936820        -2.982138
 H        -3.779667         1.442672         0.113917
 H        -2.355213        -0.298521         0.877681
 H        -1.677974        -0.769826        -0.746989
 H        -0.321346         3.094623         0.622081
 H        -1.949932         2.548594         1.331395
