19
Iteration:    74
 O         0.383251         0.631917         0.940112
 C        -0.678089         0.985720         0.076103
 C        -0.678279         1.703886        -1.375387
 C        -1.965588         2.308919        -0.811681
 C        -2.989853         2.680906        -1.947672
 O        -3.428266         1.344226        -2.054564
 C        -2.922170         1.095917        -0.629177
 C        -1.927890        -0.021510        -0.215841
 C        -1.420565         2.228265         0.635763
 H         1.043008         0.203976         0.437591
 H         0.109240         2.446028        -1.550130
 H        -0.730514         1.143247        -2.298546
 H        -3.854792         3.333102        -1.567763
 H        -2.557515         2.986577        -2.872031
 H        -3.836325         1.173102         0.049574
 H        -2.251764        -0.595249         0.714421
 H        -1.786235        -0.663647        -1.110357
 H        -0.831918         2.992728         1.059700
 H        -2.205178         2.178637         1.412151
