19
Iteration:   121charge 0 multiplicity 1
 O         0.402359         0.422964         0.595913
 C        -0.746411         1.049530         0.119870
 C        -0.706900         1.737766        -1.200947
 C        -2.055030         2.232996        -0.783378
 C        -2.990099         2.746427        -1.854916
 O        -3.274697         1.308994        -2.159246
 C        -2.880794         0.979762        -0.684875
 C        -1.881857         0.027648        -0.072123
 C        -1.503337         2.458157         0.631904
 H         0.247046         0.285592         1.564306
 H        -0.076011         2.636009        -1.300761
 H        -0.590211         1.129981        -2.095467
 H        -3.924338         3.192341        -1.441838
 H        -2.592161         3.288259        -2.748532
 H        -3.813227         1.186834        -0.149286
 H        -2.239749        -0.350471         0.884542
 H        -1.486816        -0.811139        -0.682087
 H        -0.844283         3.220255         0.897581
 H        -2.154548         2.315676         1.425795
