19
Iteration:  3691
 O         0.215208         0.300363         0.775770
 C        -0.771646         1.068899         0.157982
 C        -0.659760         1.559978        -1.315537
 C        -1.980919         2.311118        -0.873162
 C        -2.996219         2.692331        -1.936990
 O        -3.334197         1.241953        -2.035022
 C        -2.933104         1.062474        -0.631325
 C        -1.942694         0.042303         0.016207
 C        -1.238258         2.699022         0.411368
 H         0.849658         0.984444         1.163662
 H         0.220048         2.185596        -1.504081
 H        -0.833908         0.750108        -2.054809
 H        -3.854315         3.241863        -1.625572
 H        -2.720605         2.979014        -2.931611
 H        -3.851965         1.268368         0.036297
 H        -2.435659        -0.202680         1.084321
 H        -1.636726        -0.859864        -0.541717
 H        -0.394920         3.383018         0.427778
 H        -1.782373         2.944732         1.369659
