19
Iteration:   534charge 0 multiplicity 1
 O         0.346434         0.379688         0.815342
 C        -0.683279         1.037913         0.068970
 C        -0.678674         1.736702        -1.300799
 C        -2.029256         2.285966        -0.812747
 C        -2.947577         2.713991        -1.893441
 O        -3.422400         1.357602        -2.049791
 C        -2.944675         0.983348        -0.707555
 C        -1.826690         0.066517        -0.182968
 C        -1.434873         2.378182         0.628108
 H         0.753883         1.034755         1.362846
 H         0.008679         2.562496        -1.527263
 H        -0.670566         1.068574        -2.165968
 H        -3.880352         3.428117        -1.658653
 H        -2.475257         3.058730        -2.781816
 H        -3.871594         1.030594        -0.052258
 H        -2.113749        -0.410731         0.739079
 H        -1.590273        -0.811938        -0.774485
 H        -0.755022         3.137565         0.876997
 H        -2.262224         2.264010         1.357013
