19
Iteration:  1624charge 0 multiplicity 1
 O         0.412668         0.638529         0.679479
 C        -0.826925         0.980293         0.174678
 C        -0.683708         1.417567        -1.303001
 C        -1.951050         2.228909        -0.800762
 C        -2.945586         2.730765        -1.915522
 O        -3.354756         1.334919        -2.112390
 C        -2.985953         1.114856        -0.701776
 C        -2.035803         0.090324        -0.012056
 C        -1.258450         2.387452         0.544265
 H         0.240109         0.211992         1.484167
 H         0.105806         2.210527        -1.322892
 H        -0.762089         0.579911        -2.094470
 H        -3.698123         3.392305        -1.432192
 H        -2.647248         3.232881        -2.856560
 H        -3.877447         1.384915         0.016379
 H        -2.421967        -0.342358         0.890092
 H        -1.786755        -0.790760        -0.539841
 H        -0.591709         3.181047         0.623856
 H        -1.844679         2.561359         1.537752
