19
Iteration:  4323
 O         0.364609         0.557171         0.873095
 C        -0.773854         0.956265         0.213665
 C        -0.769772         1.547175        -1.322267
 C        -2.076553         2.211349        -0.831064
 C        -2.875899         2.767165        -1.894331
 O        -3.387592         1.378215        -2.109617
 C        -2.925971         1.039585        -0.767232
 C        -1.906811         0.008383        -0.086555
 C        -1.360227         2.403223         0.524841
 H         1.004117         1.231378         0.587590
 H         0.018326         2.219489        -1.315423
 H        -1.010994         0.920089        -2.191739
 H        -3.651559         3.432521        -1.363625
 H        -2.492632         3.169438        -2.788056
 H        -3.767189         0.924642        -0.147920
 H        -2.361674        -0.437628         0.822440
 H        -1.304585        -0.826187        -0.576144
 H        -0.525179         3.134572         0.515710
 H        -1.889467         2.660505         1.418840
