19
Iteration:    47charge 0 multiplicity 1
 O         0.188070         0.444827         0.848292
 C        -0.724893         1.042092         0.092057
 C        -0.563475         1.719056        -1.266769
 C        -1.955483         2.282418        -0.885321
 C        -3.051356         2.774318        -1.831889
 O        -3.494518         1.245990        -1.998195
 C        -2.800571         1.037614        -0.702042
 C        -1.831146        -0.001597        -0.202985
 C        -1.395621         2.380606         0.522641
 H         1.002289         0.873137         0.693129
 H         0.226192         2.492003        -1.299348
 H        -0.363260         1.122937        -2.191909
 H        -3.841103         3.285891        -1.347870
 H        -2.784296         3.194331        -2.852975
 H        -3.631787         1.105374         0.014903
 H        -2.232155        -0.408457         0.695440
 H        -1.477299        -0.779171        -0.872075
 H        -0.638628         3.273983         0.718156
 H        -2.108993         2.559846         1.356321
