19
Iteration:  1641
 O         0.428726         0.533985         0.782429
 C        -0.721669         1.020118         0.139539
 C        -0.677306         1.481584        -1.303057
 C        -1.952166         2.313345        -0.920620
 C        -2.998936         2.764454        -1.872134
 O        -3.346084         1.271761        -2.075215
 C        -2.934523         1.158474        -0.644868
 C        -2.076189         0.023925        -0.035291
 C        -1.344363         2.494454         0.513723
 H         0.303554        -0.198886         1.328581
 H         0.231746         2.026508        -1.504985
 H        -0.866069         0.743195        -2.020662
 H        -3.934704         3.168493        -1.478068
 H        -2.588107         3.238149        -2.776226
 H        -3.791148         1.336083        -0.023629
 H        -2.527950        -0.455432         0.930262
 H        -1.902948        -0.801593        -0.818244
 H        -0.346904         3.006389         0.434129
 H        -2.043488         2.572340         1.304188
