19
Iteration:   294charge 0 multiplicity 1
 O         0.469421         0.475814         0.669887
 C        -0.795047         1.011870         0.092217
 C        -0.646035         1.818316        -1.232966
 C        -2.044391         2.268505        -0.792903
 C        -3.017319         2.734263        -1.866146
 O        -3.341689         1.326945        -2.211572
 C        -2.879984         0.980587        -0.741058
 C        -1.928798        -0.011417        -0.067067
 C        -1.469903         2.388277         0.700849
 H         0.417567        -0.067415         1.479354
 H        -0.014410         2.626145        -1.130899
 H        -0.395062         1.101982        -1.970546
 H        -3.944729         3.269810        -1.595610
 H        -2.556630         3.299607        -2.613194
 H        -3.813484         1.206799        -0.214253
 H        -2.414175        -0.347069         0.861265
 H        -1.648167        -0.959483        -0.639276
 H        -0.669499         3.056274         0.959741
 H        -2.233679         2.281934         1.620111
