19
Iteration:  1241charge 0 multiplicity 1
 O         0.475868         0.681508         0.797150
 C        -0.696929         0.959912         0.133017
 C        -0.633368         1.517247        -1.306402
 C        -1.938945         2.128412        -0.878360
 C        -2.958047         2.741525        -1.869583
 O        -3.420322         1.395815        -2.117809
 C        -2.942476         1.087070        -0.688485
 C        -2.082866         0.039793        -0.060134
 C        -1.419702         2.364451         0.551114
 H         0.364135         0.109675         1.556560
 H         0.069766         2.364576        -1.320380
 H        -0.599048         0.984696        -2.241457
 H        -3.784289         3.316618        -1.387997
 H        -2.623753         3.160862        -2.839075
 H        -3.601024         1.469192         0.037784
 H        -2.490350        -0.757751         0.815303
 H        -1.967539        -0.736635        -0.846412
 H        -0.625986         3.026758         0.597599
 H        -2.168906         2.366693         1.399693
