19
Iteration:  3968charge 0 multiplicity 1
 O         0.378674         0.545319         0.772453
 C        -0.789619         0.987278         0.061459
 C        -0.686203         1.567359        -1.310830
 C        -1.926373         2.325757        -0.846977
 C        -2.935280         2.657252        -2.070484
 O        -3.384917         1.275329        -2.066031
 C        -2.979059         1.127303        -0.523712
 C        -2.025741         0.041731        -0.002896
 C        -1.301490         2.387930         0.555948
 H         0.767889         1.174437         1.339419
 H         0.106015         2.343818        -1.462601
 H        -0.697451         0.861686        -2.103406
 H        -3.878172         3.207787        -1.716406
 H        -2.594592         2.945431        -3.127048
 H        -3.811404         1.455247         0.226014
 H        -2.423429        -0.306808         1.001519
 H        -1.883699        -0.875636        -0.672897
 H        -0.466117         3.085908         0.597487
 H        -1.905648         2.434181         1.482007
