19
Iteration:  2498
 O         0.270540         0.429796         0.722113
 C        -0.832413         0.997309         0.098060
 C        -0.580904         1.516121        -1.342344
 C        -1.861305         2.372977        -0.917434
 C        -3.049947         2.633414        -1.865429
 O        -3.427749         1.265819        -1.985243
 C        -2.905571         1.150645        -0.602079
 C        -1.990437         0.057950        -0.001567
 C        -1.214093         2.521869         0.440828
 H         0.291446         0.793746         1.574044
 H         0.341812         2.231211        -1.418790
 H        -0.711739         0.767122        -2.177729
 H        -3.954651         3.147591        -1.413689
 H        -2.803474         3.141171        -2.896247
 H        -3.770240         1.620013         0.040232
 H        -2.368841        -0.303659         0.876204
 H        -1.810668        -0.712565        -0.806676
 H        -0.366264         3.198508         0.549686
 H        -1.729248         2.572595         1.379004
