19
Iteration:  3332
 O         0.196744         0.296689         0.762750
 C        -0.704565         1.089002         0.115122
 C        -0.666745         1.754610        -1.341245
 C        -2.063251         2.289513        -0.786625
 C        -2.987300         2.639779        -1.910774
 O        -3.235355         1.213260        -2.055530
 C        -2.937108         1.047496        -0.629319
 C        -1.990050         0.136621        -0.071009
 C        -1.280337         2.507302         0.555588
 H         1.065455         0.782551         0.750060
 H         0.026063         2.659501        -1.445606
 H        -0.545281         1.038348        -2.170428
 H        -3.832684         3.146661        -1.675766
 H        -2.663564         3.072358        -2.898012
 H        -3.766782         1.407339         0.061950
 H        -2.383871        -0.247986         0.913054
 H        -1.759920        -0.708830        -0.710872
 H        -0.551458         3.288416         0.484456
 H        -2.032501         2.414035         1.417616
