19
Iteration:  4938charge 0 multiplicity 1
 O         0.406620         0.569360         0.823653
 C        -0.730491         0.990048         0.196347
 C        -0.715840         1.527163        -1.237662
 C        -2.000685         2.349520        -0.834819
 C        -2.904161         2.710065        -1.941529
 O        -3.458116         1.354865        -2.084081
 C        -2.941847         1.057460        -0.785598
 C        -1.901736        -0.012629        -0.120821
 C        -1.441594         2.342829         0.618862
 H         0.944351         1.342993         0.732941
 H         0.019296         2.354706        -1.343752
 H        -0.649470         0.768770        -2.050330
 H        -3.623670         3.572658        -1.853855
 H        -2.382078         2.908120        -2.865943
 H        -3.788462         1.354564        -0.087437
 H        -2.400575        -0.694209         0.625656
 H        -1.523237        -0.728985        -0.856706
 H        -0.589313         2.977079         0.858799
 H        -2.163445         2.377183         1.493958
