19
Iteration:  3133
 O         0.378075         0.524143         0.805688
 C        -0.808926         0.951423         0.136968
 C        -0.706283         1.521077        -1.293429
 C        -1.981621         2.320036        -0.828059
 C        -2.987367         2.750422        -1.975600
 O        -3.354812         1.344934        -2.139075
 C        -2.902966         1.086543        -0.611177
 C        -2.048438        -0.025558         0.002329
 C        -1.285133         2.454838         0.554397
 H         1.184876         0.660405         0.329282
 H         0.156397         2.221642        -1.492222
 H        -0.832682         0.859383        -2.177007
 H        -3.963042         3.223046        -1.647961
 H        -2.381614         3.195774        -2.864899
 H        -3.726893         1.292550         0.061260
 H        -2.564585        -0.308675         0.939415
 H        -1.763558        -0.911547        -0.549629
 H        -0.433488         3.115537         0.788629
 H        -2.013221         2.636150         1.344375
