19
Iteration:   995
 O         0.453396         0.602503         0.755609
 C        -0.733588         0.982340         0.069496
 C        -0.656003         1.516424        -1.375588
 C        -1.956327         2.255813        -0.862643
 C        -2.965578         2.720471        -1.934096
 O        -3.359311         1.317477        -2.020173
 C        -2.967845         1.104037        -0.628581
 C        -2.052647         0.027006        -0.035384
 C        -1.375347         2.406553         0.562321
 H         0.102559         0.260904         1.545714
 H         0.015587         2.329830        -1.572836
 H        -0.817174         0.851755        -2.219918
 H        -3.740905         3.286467        -1.484157
 H        -2.518068         3.164630        -2.782288
 H        -3.762628         1.253052         0.207780
 H        -2.505582        -0.277007         0.865583
 H        -1.798012        -0.677465        -0.729108
 H        -0.526920         3.014177         0.719095
 H        -2.070493         2.519727         1.351828
