19
Iteration:  4951
 O         0.400142         0.589535         0.830067
 C        -0.844028         0.983861         0.145085
 C        -0.664438         1.577966        -1.261376
 C        -1.981582         2.204614        -0.825640
 C        -2.901677         2.752721        -1.950520
 O        -3.380550         1.326022        -2.074670
 C        -2.899279         1.093918        -0.650629
 C        -1.990184        -0.016290        -0.195513
 C        -1.432574         2.365548         0.591213
 H         1.083336         1.320485         0.768874
 H         0.219623         2.230835        -1.427442
 H        -0.761169         0.835674        -2.109721
 H        -3.815306         3.362704        -1.554399
 H        -2.380417         3.163077        -2.828254
 H        -3.754981         1.071440         0.083138
 H        -2.333061        -0.338212         0.682192
 H        -1.677512        -0.796688        -0.892926
 H        -0.688190         3.120089         0.791821
 H        -2.254950         2.426285         1.391244
