19
Iteration:  1611charge 0 multiplicity 1
 O         0.464450         0.559130         0.694363
 C        -0.752698         0.994197         0.135285
 C        -0.730865         1.530437        -1.287599
 C        -1.993458         2.251592        -0.863859
 C        -2.896100         2.739512        -1.944182
 O        -3.397442         1.373098        -2.091457
 C        -2.953095         1.095655        -0.678036
 C        -2.050896        -0.022717         0.035704
 C        -1.333796         2.397244         0.566612
 H         0.407589         0.591674         1.721667
 H         0.145782         2.147558        -1.561880
 H        -0.779116         0.827347        -2.138956
 H        -3.742903         3.395836        -1.735924
 H        -2.357164         3.073746        -2.847767
 H        -3.961927         1.317850        -0.054625
 H        -2.524134        -0.102294         1.060952
 H        -1.824450        -0.963468        -0.499528
 H        -0.461154         3.006702         0.642452
 H        -2.051781         2.555126         1.412339
