19
Iteration:  3276charge 0 multiplicity 1
 O         0.397304         0.587166         0.807151
 C        -0.681278         1.048005         0.128577
 C        -0.631193         1.494479        -1.294327
 C        -2.002073         2.153395        -0.901114
 C        -2.843236         2.831899        -1.882697
 O        -3.529643         1.389249        -2.082563
 C        -3.006672         1.013344        -0.676558
 C        -1.995986         0.012986        -0.045055
 C        -1.421841         2.312651         0.522632
 H         1.127937         1.267461         0.922205
 H         0.236311         2.284986        -1.373684
 H        -0.388788         0.760261        -2.090735
 H        -3.494677         3.531636        -1.537544
 H        -2.358513         2.919925        -2.889383
 H        -3.760337         1.400408         0.030445
 H        -2.363009        -0.492175         0.924725
 H        -1.664842        -0.690959        -0.727376
 H        -0.689108         3.142640         0.709407
 H        -2.162699         2.444446         1.439329
