19
Iteration:  2820
 O         0.455346         0.511962         0.624130
 C        -0.742713         0.953839         0.132017
 C        -0.646968         1.617649        -1.266221
 C        -1.971823         2.281817        -0.897654
 C        -2.819102         2.651324        -2.068050
 O        -3.477600         1.279020        -1.899570
 C        -2.937868         1.147807        -0.602666
 C        -2.072827         0.047849         0.017280
 C        -1.392804         2.490178         0.575409
 H         0.248561        -0.279528         1.196975
 H         0.047178         2.527331        -1.326446
 H        -0.750987         0.959646        -2.244580
 H        -3.608729         3.477004        -1.968302
 H        -2.110484         2.795444        -2.894557
 H        -3.901070         1.412661         0.000004
 H        -2.433160        -0.342305         0.906705
 H        -1.861350        -0.706841        -0.675167
 H        -0.657321         3.266655         0.584850
 H        -2.216034         2.544722         1.367713
