19
Iteration:  4442
 O         0.377119         0.597574         0.846588
 C        -0.796267         0.968027         0.121033
 C        -0.592484         1.579957        -1.298310
 C        -1.928182         2.246989        -0.872039
 C        -2.984524         2.769524        -1.929563
 O        -3.407487         1.372734        -2.138197
 C        -2.953793         1.059088        -0.702354
 C        -1.930644        -0.018318        -0.043630
 C        -1.459013         2.285299         0.583318
 H         0.893555         1.440122         0.808560
 H         0.184926         2.343050        -1.391398
 H        -0.622829         0.706545        -2.033272
 H        -3.651242         3.377504        -1.341577
 H        -2.568416         3.324457        -2.706027
 H        -3.821511         1.051009        -0.027282
 H        -2.327271        -0.410357         0.823103
 H        -1.796828        -0.827007        -0.757795
 H        -0.485859         2.909225         0.786571
 H        -2.194577         2.467317         1.420246
