19
Iteration:  1086charge 0 multiplicity 1
 O         0.335397         0.467223         0.768812
 C        -0.727934         1.027367         0.098330
 C        -0.665375         1.572457        -1.268645
 C        -1.991650         2.352704        -0.853337
 C        -3.058304         2.689118        -1.910009
 O        -3.377776         1.298881        -2.059380
 C        -2.828714         1.112773        -0.654754
 C        -1.983592        -0.004007        -0.078928
 C        -1.288933         2.447071         0.494084
 H         0.077003         0.517524         1.732610
 H         0.203465         2.200296        -1.381547
 H        -0.894873         0.877272        -2.072087
 H        -3.923600         3.189700        -1.428809
 H        -2.696357         3.096357        -2.874403
 H        -3.885817         1.373002        -0.085105
 H        -2.363357        -0.286704         0.891521
 H        -1.623627        -0.628730        -0.837828
 H        -0.392517         3.111321         0.631381
 H        -1.896167         2.515976         1.366768
