19
Iteration:  2136charge 0 multiplicity 1
 O         0.371481         0.360029         0.800736
 C        -0.742563         1.002936         0.106365
 C        -0.665311         1.540988        -1.343197
 C        -1.968285         2.325342        -0.923110
 C        -3.071448         2.696115        -1.842806
 O        -3.367867         1.232910        -2.071372
 C        -2.921119         1.152466        -0.627187
 C        -1.966343         0.177211         0.014236
 C        -1.250295         2.574471         0.420380
 H         0.031233        -0.154164         1.508859
 H         0.031427         2.363028        -1.539373
 H        -0.570480         0.780753        -2.158865
 H        -3.974632         3.130475        -1.370452
 H        -2.875557         3.145539        -2.857360
 H        -3.870756         1.284786         0.059908
 H        -2.364984        -0.162464         1.019166
 H        -1.822089        -0.758302        -0.504146
 H        -0.392373         3.155174         0.352885
 H        -1.830766         2.688190         1.378352
