19
Iteration:  2248
 O         0.394209         0.450088         0.777832
 C        -0.723826         0.954475         0.047380
 C        -0.690108         1.579624        -1.374572
 C        -1.960508         2.266601        -0.921884
 C        -2.975538         2.666836        -1.892578
 O        -3.368757         1.275268        -2.021541
 C        -2.968660         1.149291        -0.562338
 C        -2.045146         0.117620         0.001190
 C        -1.221808         2.504384         0.482634
 H        -0.044618         0.393748         1.657755
 H         0.135669         2.238939        -1.603582
 H        -0.763370         0.890640        -2.194466
 H        -3.859577         3.252982        -1.535178
 H        -2.778514         3.169315        -2.795021
 H        -3.903740         1.395019         0.089396
 H        -2.385094        -0.214032         0.968636
 H        -1.924118        -0.800701        -0.688293
 H        -0.512551         3.348242         0.536693
 H        -1.946971         2.445983         1.321725
