19
Iteration:  3163
 O         0.432720         0.591388         0.767111
 C        -0.745428         1.016439         0.113499
 C        -0.692581         1.375247        -1.328788
 C        -2.055751         2.219730        -0.803484
 C        -2.821054         2.819091        -1.951816
 O        -3.397064         1.342282        -2.119143
 C        -3.044685         1.107063        -0.625142
 C        -2.056495         0.043282        -0.016067
 C        -1.361857         2.384785         0.631635
 H         1.261637         1.098935         0.471131
 H         0.042943         2.200184        -1.671782
 H        -0.592500         0.535487        -2.139964
 H        -3.720380         3.342147        -1.813638
 H        -2.177961         3.175285        -2.710747
 H        -3.869631         1.348566         0.026694
 H        -2.451473        -0.266199         0.874425
 H        -1.695399        -0.865451        -0.561916
 H        -0.575606         3.266993         0.711830
 H        -2.075557         2.232932         1.431149
