19
Iteration:  2090
 O         0.564331         0.543697         0.674800
 C        -0.710366         0.957860         0.134394
 C        -0.774249         1.544952        -1.322751
 C        -2.020845         2.269611        -0.854385
 C        -2.849800         2.653327        -2.104601
 O        -3.471841         1.369495        -1.981610
 C        -2.932048         1.181405        -0.555450
 C        -2.053121         0.058649         0.012120
 C        -1.403211         2.370800         0.566186
 H         0.429214         0.529952         1.617582
 H         0.253086         2.030205        -1.533790
 H        -1.085135         0.814632        -2.160719
 H        -3.569568         3.476805        -1.967746
 H        -2.112276         2.782727        -2.985978
 H        -3.787937         1.509987         0.239662
 H        -2.366023        -0.315998         1.052970
 H        -2.119832        -0.865886        -0.535329
 H        -0.614050         3.032358         0.601008
 H        -2.191200         2.553489         1.291467
