19
Iteration:  2012charge 0 multiplicity 1
 O         0.258064         0.488428         0.834518
 C        -0.683415         1.072426         0.114261
 C        -0.616759         1.495201        -1.384626
 C        -1.932529         2.278145        -0.922494
 C        -3.031563         2.662505        -1.834710
 O        -3.452614         1.268603        -1.994400
 C        -2.909014         1.163934        -0.685999
 C        -1.944865         0.111003        -0.012480
 C        -1.259471         2.490250         0.434086
 H        -0.009305        -0.327926         1.185315
 H         0.254513         2.178856        -1.733171
 H        -0.701414         0.617827        -2.076940
 H        -3.729009         3.269671        -1.261148
 H        -2.928865         3.174757        -2.818952
 H        -3.689047         1.563339         0.078702
 H        -2.294862        -0.237062         0.987786
 H        -1.711349        -0.737077        -0.733726
 H        -0.345544         3.117367         0.364621
 H        -1.814125         2.584877         1.290071
