19
Iteration:  4504
 O         0.207765         0.282119         0.849004
 C        -0.720521         1.115747         0.109381
 C        -0.627383         1.797037        -1.335125
 C        -2.053262         2.303812        -0.865154
 C        -2.977478         2.681556        -1.968658
 O        -3.340608         1.246113        -2.022713
 C        -2.870693         0.991539        -0.691330
 C        -1.910755         0.098376        -0.101863
 C        -1.352998         2.494740         0.652738
 H         1.051776         0.784376         0.893107
 H         0.041786         2.637399        -1.487113
 H        -0.625334         1.179337        -2.230821
 H        -3.890486         3.306273        -1.771745
 H        -2.564600         2.922575        -2.993602
 H        -3.779678         0.858935        -0.064722
 H        -2.353237        -0.424284         0.743300
 H        -1.520333        -0.651384        -0.854511
 H        -0.704283         3.276488         0.643039
 H        -1.989809         2.452183         1.529413
