19
Iteration:   142
 O         0.450074         0.331853         0.762576
 C        -0.715230         0.959170         0.086101
 C        -0.663917         1.852595        -1.339107
 C        -2.084079         2.416703        -0.755948
 C        -3.152426         2.717867        -1.914589
 O        -3.204715         1.229537        -2.108172
 C        -2.906821         1.118427        -0.701843
 C        -1.926100         0.085334        -0.116866
 C        -1.457875         2.287616         0.674227
 H         0.797410         0.925542         1.518997
 H         0.214012         2.421808        -1.488750
 H        -0.733728         1.254654        -2.227063
 H        -4.156341         3.120334        -1.584742
 H        -2.756687         3.205018        -2.817211
 H        -3.896419         1.273064        -0.246310
 H        -2.386160        -0.282737         0.811466
 H        -1.728473        -0.785982        -0.791879
 H        -0.839121         3.042992         0.969145
 H        -2.164712         2.178260         1.418348
