19
Iteration:  1787
 O         0.269757         0.473218         0.738238
 C        -0.781144         1.082617         0.117685
 C        -0.664639         1.537710        -1.295138
 C        -1.926081         2.335170        -0.884367
 C        -2.987837         2.641123        -1.895366
 O        -3.351238         1.204419        -2.062347
 C        -2.936452         1.172944        -0.627400
 C        -1.987804         0.138682        -0.006835
 C        -1.219888         2.505050         0.548163
 H         0.446682        -0.508306         0.618698
 H         0.074721         2.320024        -1.519417
 H        -0.860048         0.778667        -2.092797
 H        -3.929812         3.123068        -1.549080
 H        -2.756843         3.227469        -2.813732
 H        -3.754900         1.429768        -0.050324
 H        -2.362393        -0.555329         0.900045
 H        -1.833493        -0.740571        -0.667953
 H        -0.418656         3.134194         0.580918
 H        -1.864878         2.589677         1.519449
