19
Iteration:  3263charge 0 multiplicity 1
 O         0.323821         0.524429         0.889029
 C        -0.773262         0.966695         0.119689
 C        -0.597322         1.560240        -1.292057
 C        -1.952466         2.183052        -0.870438
 C        -2.913143         2.720796        -1.961682
 O        -3.567881         1.424356        -2.048929
 C        -2.924916         1.060648        -0.675840
 C        -1.884845        -0.013780        -0.091206
 C        -1.345451         2.422224         0.516252
 H         0.913226         1.253765         0.730114
 H         0.070449         2.496073        -1.388226
 H        -0.625662         0.881155        -2.191632
 H        -3.574004         3.426784        -1.576862
 H        -2.501834         3.199017        -2.830107
 H        -3.830054         1.063027         0.041924
 H        -2.235516        -0.361006         0.872854
 H        -1.653570        -0.868034        -0.695812
 H        -0.482406         3.183427         0.552409
 H        -2.099443         2.338384         1.331113
