19
Iteration:  2374charge 0 multiplicity 1
 O         0.363477         0.377961         0.819874
 C        -0.738865         0.907669         0.139936
 C        -0.637171         1.579305        -1.414903
 C        -1.958687         2.298404        -0.943412
 C        -3.040039         2.748718        -1.971287
 O        -3.471521         1.317420        -1.941325
 C        -2.867053         1.104524        -0.607343
 C        -1.977724        -0.010133        -0.020094
 C        -1.292151         2.623953         0.420513
 H         0.173503         0.443172         1.733529
 H         0.182659         2.274073        -1.469667
 H        -0.592537         0.913108        -2.298766
 H        -3.770429         3.277094        -1.351842
 H        -2.728888         3.133986        -2.955516
 H        -3.703550         1.534074         0.110918
 H        -2.095462        -0.325398         1.026976
 H        -1.845459        -0.880399        -0.566315
 H        -0.329397         3.128326         0.452660
 H        -2.034938         2.935717         1.237322
