19
Iteration:  2040
 O         0.379102         0.343503         0.825512
 C        -0.695486         0.966160         0.170904
 C        -0.649331         1.568610        -1.356364
 C        -1.937024         2.330978        -0.938130
 C        -3.068666         2.678408        -1.991953
 O        -3.465491         1.281836        -1.913011
 C        -2.881467         1.199112        -0.637648
 C        -1.965023         0.006570        -0.036517
 C        -1.324756         2.646910         0.392797
 H         0.165894         0.174432         1.743067
 H         0.215250         2.202813        -1.413790
 H        -0.493950         0.899161        -2.184146
 H        -3.772114         3.437468        -1.537675
 H        -2.890695         3.060339        -2.982686
 H        -3.529957         1.562258         0.104065
 H        -2.369910        -0.630690         0.756883
 H        -1.752085        -0.759878        -0.805247
 H        -0.364929         3.216439         0.480764
 H        -2.175848         2.663629         1.222934
