19
Iteration:  1584
 O         0.398495         0.357359         0.721165
 C        -0.702001         1.030358         0.132943
 C        -0.687482         1.606804        -1.280188
 C        -1.988153         2.262516        -0.878506
 C        -2.904191         2.667495        -2.014187
 O        -3.446302         1.303340        -2.013152
 C        -2.971652         1.181200        -0.636885
 C        -1.947837         0.087721        -0.037668
 C        -1.412622         2.419558         0.581263
 H         0.717923         0.897391         1.536849
 H         0.094258         2.350574        -1.406545
 H        -0.555142         0.983682        -2.173271
 H        -3.741918         3.402103        -1.954690
 H        -2.387442         2.945143        -2.956772
 H        -3.861539         1.434813        -0.002581
 H        -2.294449        -0.261205         0.963084
 H        -1.702112        -0.711691        -0.778966
 H        -0.645838         3.347436         0.835729
 H        -2.106020         2.557753         1.425183
