19
Iteration:   432
 O         0.443667         0.608375         0.838095
 C        -0.757011         1.011557         0.176538
 C        -0.715287         1.718024        -1.284388
 C        -2.060889         2.277085        -0.746750
 C        -2.907575         2.734623        -1.877462
 O        -3.394760         1.360081        -2.150300
 C        -2.984254         0.972577        -0.653826
 C        -1.927296        -0.017813        -0.244418
 C        -1.394003         2.303711         0.620409
 H         0.482430        -0.390640         0.596002
 H         0.004832         2.592383        -1.182318
 H        -0.560616         1.097224        -2.226256
 H        -3.744302         3.511896        -1.800957
 H        -2.355137         3.112920        -2.832165
 H        -3.863169         0.928054         0.032909
 H        -2.338146        -0.584517         0.612542
 H        -1.466228        -0.564194        -1.039161
 H        -0.551784         3.019950         0.704218
 H        -2.047920         2.386982         1.474520
