19
Iteration:   302charge 0 multiplicity 1
 O         0.511429         0.536305         0.645014
 C        -0.774111         0.997716         0.144853
 C        -0.675282         1.773570        -1.222286
 C        -2.055217         2.218296        -0.823082
 C        -2.943671         2.710356        -1.877822
 O        -3.316112         1.315168        -2.156809
 C        -2.888374         1.054464        -0.758270
 C        -2.016934         0.009821        -0.136070
 C        -1.504105         2.322097         0.714657
 H         0.300109         0.190348         1.564561
 H        -0.042498         2.704379        -1.189786
 H        -0.441218         1.328465        -2.211874
 H        -3.807429         3.270426        -1.412297
 H        -2.568399         3.292856        -2.695057
 H        -3.707689         1.207970        -0.040361
 H        -2.358535        -0.283610         0.863879
 H        -1.887048        -0.938378        -0.625457
 H        -0.743169         3.037889         1.016194
 H        -2.180991         2.125226         1.619528
