19
Iteration:  1947
 O         0.350013         0.452065         0.637746
 C        -0.822363         1.033328         0.116309
 C        -0.634342         1.486464        -1.232102
 C        -1.960345         2.290324        -0.853092
 C        -2.853572         2.639396        -2.051819
 O        -3.478405         1.282685        -1.969658
 C        -2.968351         1.216958        -0.597540
 C        -2.007690         0.050596         0.067493
 C        -1.302940         2.513542         0.573018
 H         1.073257         1.054364         0.326359
 H         0.288337         2.031008        -1.502379
 H        -0.768326         0.663500        -1.946802
 H        -3.630010         3.378869        -1.877559
 H        -2.422838         2.848378        -3.076176
 H        -3.752675         1.496195         0.025203
 H        -2.373335        -0.471814         0.937731
 H        -1.815735        -0.800870        -0.586981
 H        -0.435671         3.226579         0.676035
 H        -2.132737         2.642774         1.293415
