19
Iteration:    58
 O         0.211969         0.547023         0.898557
 C        -0.772104         1.044121         0.002709
 C        -0.556851         1.720160        -1.365695
 C        -1.964422         2.278472        -0.853192
 C        -2.988496         2.738288        -1.823589
 O        -3.471974         1.224961        -1.973064
 C        -2.860840         1.066298        -0.754996
 C        -1.861732         0.035672        -0.217640
 C        -1.422953         2.330326         0.621953
 H         1.117646         0.597841         0.556935
 H         0.212484         2.508955        -1.342536
 H        -0.662181         0.964569        -2.187749
 H        -3.747232         3.372855        -1.452585
 H        -2.541824         3.150165        -2.786544
 H        -3.482658         1.327698         0.111992
 H        -2.175074        -0.369861         0.719124
 H        -1.520632        -0.813464        -0.797981
 H        -0.479286         3.030335         0.830705
 H        -2.058044         1.914685         1.449595
