19
Iteration:  1985charge 0 multiplicity 1
 O         0.443109         0.573859         0.862463
 C        -0.683960         0.917773         0.123176
 C        -0.696277         1.532857        -1.369491
 C        -1.979583         2.341730        -0.859155
 C        -2.956437         2.715682        -2.017072
 O        -3.492665         1.324856        -2.013168
 C        -2.982143         1.169493        -0.632013
 C        -2.030914        -0.023279         0.051307
 C        -1.282091         2.421543         0.455241
 H         0.871854        -0.216710         0.594263
 H         0.125973         2.202570        -1.507790
 H        -0.849518         0.874885        -2.233238
 H        -3.721839         3.514446        -1.757830
 H        -2.515131         2.837712        -2.999598
 H        -3.854154         1.415698         0.067347
 H        -2.408817        -0.092062         1.070937
 H        -1.962712        -0.910901        -0.594775
 H        -0.360847         3.019524         0.476612
 H        -1.809490         2.665879         1.497177
