19
Iteration:  3325charge 0 multiplicity 1
 O         0.233785         0.380904         0.718159
 C        -0.795775         1.065840         0.143057
 C        -0.634696         1.696406        -1.308265
 C        -2.067848         2.323941        -0.808115
 C        -2.984338         2.690845        -1.947995
 O        -3.249772         1.222498        -2.060887
 C        -2.907164         1.114155        -0.637178
 C        -1.986679         0.052075        -0.015989
 C        -1.294246         2.419784         0.570017
 H         0.978914         0.942458         0.835610
 H         0.071314         2.442974        -1.486170
 H        -0.694149         1.046834        -2.183056
 H        -4.076612         3.091548        -1.631878
 H        -2.503820         3.071882        -2.842613
 H        -3.733139         1.420966        -0.032832
 H        -2.325325        -0.296348         0.938628
 H        -1.648597        -0.785219        -0.780259
 H        -0.549230         3.235362         0.451485
 H        -1.829788         2.405348         1.490203
