19
Iteration:   490
 O         0.352757         0.471534         0.787348
 C        -0.790236         1.041179         0.094104
 C        -0.597136         1.700580        -1.212290
 C        -1.959560         2.344775        -0.776668
 C        -3.001148         2.714241        -1.824306
 O        -3.284876         1.230615        -2.103348
 C        -2.937189         1.087065        -0.668059
 C        -2.002592        -0.010449        -0.263664
 C        -1.448211         2.426419         0.589067
 H         1.147238         0.528627         0.311940
 H         0.201882         2.418146        -1.116687
 H        -0.503808         1.084248        -2.110899
 H        -3.917988         3.057971        -1.116264
 H        -2.944743         3.282475        -2.708790
 H        -3.885698         1.285503        -0.143034
 H        -2.409742        -0.443094         0.604548
 H        -1.757838        -0.882523        -0.850202
 H        -0.693745         3.112917         0.671288
 H        -2.098844         2.269940         1.476342
