19
Iteration:  2187charge 0 multiplicity 1
 O         0.439637         0.567535         0.707201
 C        -0.736409         0.989332         0.126423
 C        -0.589379         1.542735        -1.251561
 C        -1.915742         2.193011        -0.881348
 C        -2.846756         2.697244        -2.025435
 O        -3.582631         1.312629        -1.899242
 C        -3.021441         1.142881        -0.559296
 C        -2.047001         0.071092        -0.144371
 C        -1.333209         2.469402         0.494184
 H         0.208880         0.183956         1.552669
 H         0.332232         2.190968        -1.229919
 H        -0.512196         0.695835        -2.002306
 H        -3.641056         3.380464        -1.779252
 H        -2.435330         2.689571        -3.070217
 H        -3.618566         1.480066         0.220097
 H        -2.436867        -0.570804         0.672985
 H        -1.878736        -0.629094        -0.945946
 H        -0.550977         3.281724         0.379428
 H        -1.916337         2.546565         1.393020
