19
Iteration:   408
 O         0.316436         0.572997         0.800261
 C        -0.769429         0.916576         0.095717
 C        -0.604135         1.712628        -1.309033
 C        -1.966020         2.319536        -0.788724
 C        -3.052758         2.754489        -1.827836
 O        -3.338358         1.248429        -2.054371
 C        -2.817472         1.113758        -0.704414
 C        -1.899300        -0.039192        -0.281334
 C        -1.477479         2.392066         0.675389
 H         0.323899        -0.409131         1.045910
 H         0.255869         2.483278        -1.266066
 H        -0.544776         0.954877        -2.142229
 H        -3.924802         3.310919        -1.475254
 H        -2.806975         3.269421        -2.902203
 H        -3.637112         1.261567         0.048882
 H        -2.381778        -0.554173         0.621763
 H        -1.546458        -0.607878        -1.166408
 H        -0.674777         3.276643         0.818195
 H        -2.282098         2.431491         1.387693
