19
Iteration:  1846
 O         0.378937         0.538670         0.813922
 C        -0.742057         1.071630         0.170118
 C        -0.589397         1.483146        -1.270460
 C        -1.936915         2.223058        -0.980850
 C        -2.862010         2.707632        -2.011060
 O        -3.603951         1.379512        -1.948287
 C        -3.007565         1.136897        -0.634552
 C        -1.993258         0.028371        -0.052445
 C        -1.335044         2.367202         0.553525
 H         1.179840         0.625536         0.248074
 H         0.203833         2.272076        -1.483348
 H        -0.586591         0.705714        -2.074209
 H        -3.619462         3.453125        -1.846613
 H        -2.437732         2.724814        -3.004981
 H        -3.680774         1.389554         0.104723
 H        -2.416150        -0.241233         0.902636
 H        -1.616376        -0.725616        -0.771646
 H        -0.505191         3.188427         0.638190
 H        -1.950710         2.299131         1.375393
