19
Iteration:  2958
 O         0.288909         0.402018         0.673608
 C        -0.733180         1.063214         0.055710
 C        -0.649864         1.731190        -1.250672
 C        -1.989117         2.329083        -0.843995
 C        -2.950941         2.575088        -2.032917
 O        -3.422234         1.230060        -1.994774
 C        -2.898651         1.149418        -0.620421
 C        -1.971972         0.083962        -0.034861
 C        -1.293522         2.491434         0.609965
 H        -0.126684        -0.362375         1.165890
 H         0.066543         2.535159        -1.225827
 H        -0.708629         1.213656        -2.168797
 H        -3.687325         3.416691        -1.927806
 H        -2.264885         2.636198        -2.938069
 H        -3.691566         1.500525         0.147800
 H        -2.314024        -0.195897         1.105150
 H        -1.675520        -0.867822        -0.673169
 H        -0.300636         3.019303         0.748899
 H        -1.931752         2.506087         1.526034
