19
Iteration:  1664charge 0 multiplicity 1
 O         0.311337         0.401157         0.838197
 C        -0.722277         1.008790         0.092936
 C        -0.645104         1.641417        -1.364413
 C        -1.968804         2.296306        -0.921711
 C        -2.986823         2.673514        -1.998864
 O        -3.451250         1.284276        -1.966605
 C        -2.867460         1.149427        -0.649824
 C        -1.936077         0.105134        -0.021302
 C        -1.313791         2.518458         0.528350
 H         0.141644        -0.509788         1.265020
 H         0.169227         2.349964        -1.355026
 H        -0.693014         1.047542        -2.245266
 H        -3.777044         3.289086        -1.555265
 H        -2.779411         2.941004        -3.046540
 H        -3.652867         1.285502         0.066117
 H        -2.434044        -0.327266         0.968484
 H        -1.614366        -0.761234        -0.683543
 H        -0.471188         3.144476         0.515776
 H        -1.977835         2.456898         1.363973
