19
Iteration:  4678charge 0 multiplicity 1
 O         0.359395         0.495934         0.853572
 C        -0.692174         1.008565         0.112119
 C        -0.705584         1.582269        -1.296904
 C        -2.018002         2.254589        -0.775180
 C        -2.962280         2.705379        -1.992361
 O        -3.403949         1.364119        -2.152049
 C        -2.952321         1.073496        -0.667364
 C        -1.876330         0.048145        -0.113187
 C        -1.426223         2.374411         0.633260
 H         0.971602         1.319061         0.850516
 H         0.003003         2.404508        -1.353962
 H        -0.599874         0.851676        -2.096503
 H        -3.843288         3.316262        -1.801550
 H        -2.363910         3.095769        -2.808391
 H        -3.823552         1.026316        -0.003538
 H        -2.222069        -0.488818         0.772205
 H        -1.589200        -0.837313        -0.789198
 H        -0.711071         3.152894         0.896152
 H        -2.129426         2.429277         1.524772
