19
Iteration:  4492
 O         0.249763         0.379299         0.795478
 C        -0.750509         1.064606         0.140169
 C        -0.715800         1.676050        -1.219771
 C        -2.030255         2.292909        -0.796372
 C        -3.010463         2.700101        -2.051373
 O        -3.390752         1.270603        -2.080174
 C        -2.900448         1.106586        -0.682096
 C        -1.800114         0.048693        -0.107092
 C        -1.364615         2.413746         0.595427
 H         1.015870         0.989332         1.030811
 H         0.118085         2.387120        -1.167531
 H        -0.643181         1.023778        -2.065666
 H        -3.831215         3.431160        -1.865375
 H        -2.328843         3.064846        -2.874692
 H        -3.730225         1.306296         0.052077
 H        -2.049518        -0.568200         0.818274
 H        -1.379580        -0.646261        -0.883398
 H        -0.678949         3.191699         0.700961
 H        -1.992905         2.377103         1.482400
