19
Iteration:   876charge 0 multiplicity 1
 O         0.315383         0.456339         0.856187
 C        -0.695590         1.058991         0.130244
 C        -0.624052         1.579871        -1.277583
 C        -1.940817         2.231246        -0.864889
 C        -2.971501         2.717273        -1.929945
 O        -3.484258         1.345267        -2.017444
 C        -2.930051         1.076375        -0.668975
 C        -1.921907         0.001004        -0.132406
 C        -1.424356         2.473246         0.507740
 H         1.195070         0.483039         0.318946
 H         0.183050         2.264722        -1.536138
 H        -0.629008         0.808223        -2.116217
 H        -3.827130         3.356207        -1.432389
 H        -2.685224         3.129639        -2.913103
 H        -3.554306         1.291231         0.113865
 H        -2.262929        -0.212231         0.877922
 H        -1.530759        -0.837210        -0.709440
 H        -0.622783         3.308925         0.652136
 H        -2.085608         2.518685         1.379723
