19
Iteration:   498charge 0 multiplicity 1
 O         0.322328         0.434716         0.811273
 C        -0.764365         1.000843         0.145463
 C        -0.625119         1.742346        -1.241596
 C        -2.003426         2.368447        -0.833713
 C        -3.063105         2.648637        -1.839484
 O        -3.286398         1.286044        -2.091463
 C        -2.950029         1.059270        -0.703824
 C        -1.967697         0.012903        -0.265460
 C        -1.349549         2.435223         0.645880
 H         1.126341         0.686060         0.363609
 H         0.220986         2.466293        -1.181704
 H        -0.614746         1.008558        -2.105917
 H        -3.872382         3.123011        -1.248888
 H        -2.788679         3.200151        -2.771438
 H        -3.859729         0.980274        -0.073195
 H        -2.408330        -0.430133         0.622594
 H        -1.616574        -0.788410        -0.929837
 H        -0.518622         3.086893         0.759889
 H        -2.176685         2.516743         1.383123
