19
Iteration:  3557charge 0 multiplicity 1
 O         0.294851         0.566045         0.935705
 C        -0.691099         0.965485         0.072085
 C        -0.612862         1.537240        -1.391975
 C        -1.846186         2.300500        -0.898698
 C        -3.031879         2.719311        -1.898631
 O        -3.446415         1.207268        -2.009778
 C        -2.884281         1.194513        -0.693725
 C        -2.054740         0.134214        -0.037035
 C        -1.336439         2.384345         0.473484
 H         0.917012        -0.104044         0.592214
 H         0.305705         2.122960        -1.448204
 H        -0.869369         0.868351        -2.156424
 H        -3.874625         3.189346        -1.486749
 H        -2.805782         2.959164        -2.875786
 H        -3.698023         1.631177         0.071159
 H        -2.269358        -0.207544         1.064338
 H        -1.797172        -0.683267        -0.763853
 H        -0.528826         3.155011         0.579631
 H        -2.079147         2.466136         1.327631
