19
Iteration:  4414charge 0 multiplicity 1
 O         0.259218         0.328911         0.910148
 C        -0.702291         1.098876         0.161588
 C        -0.663975         1.668220        -1.329294
 C        -2.034284         2.305190        -0.801642
 C        -3.026967         2.744196        -1.918290
 O        -3.367712         1.237196        -2.105260
 C        -2.867834         1.086941        -0.695078
 C        -1.859443         0.043687        -0.135982
 C        -1.384177         2.473708         0.508857
 H         1.141906         0.838025         0.970457
 H        -0.142935         2.626297        -1.550417
 H        -0.743282         0.882667        -2.027884
 H        -3.869678         3.327269        -1.434923
 H        -2.381849         3.330773        -2.681945
 H        -3.831255         1.058728        -0.074239
 H        -2.456179        -0.552249         0.729876
 H        -1.522854        -0.750213        -0.838246
 H        -0.647676         3.234146         0.377073
 H        -1.958484         2.483924         1.393463
