19
Iteration:  2989charge 0 multiplicity 1
 O         0.426174         0.385087         0.745607
 C        -0.726596         1.031667         0.128255
 C        -0.654607         1.533035        -1.270850
 C        -1.957211         2.283318        -0.855052
 C        -3.063856         2.680451        -1.904055
 O        -3.288857         1.249628        -2.053625
 C        -2.970138         1.182511        -0.643085
 C        -2.010797         0.144815        -0.064004
 C        -1.366692         2.543107         0.529794
 H        -0.085110        -0.328403         1.126199
 H         0.057688         2.342401        -1.467195
 H        -0.856023         0.834231        -2.081151
 H        -3.936819         3.358373        -1.684901
 H        -2.704143         3.011846        -2.909361
 H        -3.884347         1.490611         0.023128
 H        -2.344631        -0.331170         0.838527
 H        -1.645459        -0.588134        -0.858435
 H        -0.487471         3.220904         0.729466
 H        -1.914419         2.640790         1.379986
