19
Iteration:  4182
 O         0.349752         0.412746         0.900436
 C        -0.760937         1.065907         0.135192
 C        -0.642560         1.586644        -1.338344
 C        -1.972781         2.216231        -0.916001
 C        -3.059351         2.754403        -1.813319
 O        -3.360810         1.295750        -2.190602
 C        -2.903131         1.071662        -0.776713
 C        -1.924605         0.083765         0.072869
 C        -1.380284         2.455956         0.540574
 H         1.237550         0.449935         0.491275
 H         0.050363         2.422372        -1.414417
 H        -0.845504         0.834518        -2.171328
 H        -3.884610         3.121329        -1.112998
 H        -2.825868         3.296381        -2.733594
 H        -3.825717         1.485523        -0.165578
 H        -2.349069        -0.432678         0.986559
 H        -1.528683        -0.686967        -0.737621
 H        -0.716124         3.316029         0.552250
 H        -2.023905         2.632104         1.317854
