19
Iteration:  1653charge 0 multiplicity 1
 O         0.428476         0.455297         0.834664
 C        -0.775412         0.964078         0.169134
 C        -0.687738         1.580692        -1.376080
 C        -1.918484         2.313882        -0.865044
 C        -3.041401         2.694738        -1.948998
 O        -3.365814         1.298674        -2.013621
 C        -2.890959         1.137120        -0.651359
 C        -2.013075         0.032688        -0.068799
 C        -1.327280         2.513214         0.481077
 H         0.023848        -0.393133         1.231281
 H         0.090603         2.290826        -1.581625
 H        -0.735140         0.902407        -2.199754
 H        -3.798611         3.367333        -1.526400
 H        -2.770858         3.095925        -2.947903
 H        -3.659579         1.540094         0.026774
 H        -2.450129        -0.263792         1.007362
 H        -1.789204        -0.911569        -0.682740
 H        -0.611067         3.301855         0.637620
 H        -2.054106         2.764782         1.240686
