19
Iteration:  2659charge 0 multiplicity 1
 O         0.389992         0.532373         0.703304
 C        -0.791508         1.013727         0.154686
 C        -0.657403         1.506709        -1.278745
 C        -1.940439         2.307658        -0.857822
 C        -3.003274         2.701345        -1.987555
 O        -3.453523         1.302418        -2.067428
 C        -2.887222         1.169948        -0.625419
 C        -1.977781         0.040063         0.035168
 C        -1.276244         2.436505         0.479076
 H         0.225926        -0.192927         1.375673
 H         0.104840         2.192460        -1.563963
 H        -0.859346         0.693594        -1.941049
 H        -3.706976         3.396187        -1.516980
 H        -2.733163         3.028005        -2.978919
 H        -3.696287         1.448538         0.193674
 H        -2.482590        -0.300792         1.030836
 H        -1.734215        -0.788136        -0.671229
 H        -0.409884         3.114815         0.634625
 H        -1.895075         2.540504         1.443401
