19
Iteration:  3002charge 0 multiplicity 1
 O         0.352850         0.506142         0.711451
 C        -0.779481         1.033499         0.168503
 C        -0.671729         1.513649        -1.311861
 C        -1.970162         2.329423        -0.866616
 C        -2.970365         2.707968        -1.902102
 O        -3.371634         1.293690        -2.101762
 C        -2.878185         1.121397        -0.643228
 C        -2.005678         0.058855        -0.039376
 C        -1.303744         2.471653         0.549973
 H         0.308575        -0.206366         1.392485
 H         0.207474         2.125909        -1.459978
 H        -0.610784         0.694706        -1.983918
 H        -3.796511         3.114095        -1.270469
 H        -2.709307         3.339462        -2.811781
 H        -3.833775         1.325764         0.006434
 H        -2.464851        -0.307451         0.977639
 H        -1.897619        -0.887891        -0.690190
 H        -0.527066         3.232400         0.503814
 H        -2.031325         2.535740         1.329887
