19
Iteration:  1812
 O         0.384501         0.419556         0.794665
 C        -0.747365         1.019006         0.106493
 C        -0.673777         1.658450        -1.279835
 C        -1.977935         2.345554        -0.891796
 C        -2.926793         2.636801        -2.039816
 O        -3.409358         1.255544        -1.922915
 C        -2.974146         1.193408        -0.556940
 C        -2.020039         0.074743        -0.062971
 C        -1.333560         2.461687         0.483243
 H         0.877746        -0.324305         0.328801
 H         0.132478         2.460296        -1.334859
 H        -0.720993         0.966786        -2.173822
 H        -3.661756         3.466010        -2.057018
 H        -2.366089         2.775925        -2.958669
 H        -3.758468         1.382067         0.122558
 H        -2.486572        -0.426322         0.871418
 H        -1.937923        -0.874023        -0.636432
 H        -0.528879         3.232327         0.651235
 H        -1.923329         2.461947         1.367374
