19
Iteration:  3219
 O         0.140934         0.316299         0.849306
 C        -0.708483         1.070609         0.041422
 C        -0.506850         1.645521        -1.329028
 C        -1.942239         2.358975        -0.903929
 C        -3.020478         2.529610        -1.901365
 O        -3.393594         1.236933        -1.966469
 C        -2.951125         1.188797        -0.573368
 C        -1.924373         0.143978        -0.169801
 C        -1.345429         2.487384         0.505308
 H         0.964496         0.649538         1.146935
 H         0.291729         2.465983        -1.208816
 H        -0.411810         0.933699        -2.221975
 H        -3.778500         3.121099        -1.485337
 H        -2.929438         2.970799        -2.863066
 H        -3.692251         1.602405         0.135066
 H        -2.096334        -0.495545         0.651986
 H        -1.688372        -0.516858        -1.008763
 H        -0.488348         3.294274         0.468147
 H        -1.963242         2.610008         1.452605
