19
Iteration:  1747
 O         0.424441         0.595142         0.877222
 C        -0.691343         0.993054         0.094131
 C        -0.690886         1.523243        -1.368239
 C        -1.989330         2.206550        -0.885102
 C        -2.947694         2.749446        -1.862035
 O        -3.478038         1.352230        -2.144788
 C        -2.969043         1.113900        -0.645546
 C        -1.999886         0.053199         0.016615
 C        -1.285023         2.372536         0.442129
 H         0.291926        -0.279683         1.170603
 H         0.196055         2.211674        -1.570385
 H        -0.728338         0.723629        -2.177889
 H        -3.661821         3.434976        -1.326117
 H        -2.575733         3.187236        -2.809232
 H        -3.896306         1.403502         0.083986
 H        -2.315591        -0.203122         1.061069
 H        -1.796990        -0.878963        -0.543195
 H        -0.517602         3.244483         0.726219
 H        -1.871357         2.456069         1.376843
