19
Iteration:  1956
 O         0.367011         0.521624         0.666165
 C        -0.726911         1.055670         0.210161
 C        -0.684908         1.413096        -1.302159
 C        -1.958651         2.284879        -0.884974
 C        -2.811251         2.673403        -2.031819
 O        -3.486956         1.283924        -1.985102
 C        -3.004905         1.197010        -0.561404
 C        -2.043003         0.073073         0.024662
 C        -1.338958         2.469884         0.568274
 H         1.117554         0.784366         0.053866
 H         0.223006         2.160928        -1.420230
 H        -0.789171         0.641356        -2.117960
 H        -3.463006         3.497379        -1.826149
 H        -2.406179         2.596099        -3.031862
 H        -3.910820         1.405569         0.052191
 H        -2.455231        -0.365712         0.921219
 H        -1.771678        -0.706711        -0.794948
 H        -0.513159         3.176241         0.867053
 H        -1.908918         2.513461         1.354098
