19
Iteration:  3407charge 0 multiplicity 1
 O         0.414454         0.634961         0.917176
 C        -0.707113         0.940224         0.121422
 C        -0.675948         1.515874        -1.370500
 C        -1.992205         2.235827        -0.891811
 C        -2.907407         2.738621        -1.928774
 O        -3.482441         1.414576        -2.033735
 C        -2.901772         1.084360        -0.665482
 C        -2.017598        -0.070509        -0.114314
 C        -1.362721         2.299171         0.538756
 H         0.727645         1.490996         1.238103
 H         0.077443         2.386328        -1.520619
 H        -0.748294         0.999265        -2.345461
 H        -3.664712         3.595944        -1.927775
 H        -2.404935         3.039870        -2.916220
 H        -3.738498         1.316665         0.080249
 H        -2.369784        -0.526908         0.832994
 H        -1.856479        -0.851879        -0.746608
 H        -0.628782         3.081769         0.712921
 H        -2.141519         2.343828         1.410598
