19
Iteration:  3980
 O         0.444611         0.533221         0.708403
 C        -0.763934         0.972872         0.179614
 C        -0.682654         1.529618        -1.326751
 C        -1.966689         2.298920        -0.834902
 C        -2.944247         2.660608        -2.088543
 O        -3.425166         1.276409        -2.033977
 C        -2.946698         1.180072        -0.635534
 C        -2.055577        -0.037371         0.031331
 C        -1.346769         2.484258         0.641514
 H         0.871925         1.420925         0.886954
 H         0.326004         2.054646        -1.382859
 H        -0.866044         0.906713        -2.186151
 H        -3.674308         3.494877        -1.998143
 H        -2.325874         2.856536        -3.002564
 H        -3.819996         1.489412         0.000204
 H        -2.456658        -0.517256         0.999300
 H        -1.761106        -0.841893        -0.764789
 H        -0.591498         3.201664         0.865383
 H        -2.148440         2.502448         1.412728
