19
Iteration:   465charge 0 multiplicity 1
 O         0.420019         0.521447         0.789271
 C        -0.800209         1.010862         0.163291
 C        -0.684193         1.722678        -1.281224
 C        -1.991064         2.309913        -0.810443
 C        -3.001725         2.737909        -1.921220
 O        -3.365852         1.369421        -2.138073
 C        -2.890633         1.038652        -0.685013
 C        -1.890664        -0.007513        -0.109421
 C        -1.471587         2.273565         0.657036
 H         1.040349         0.209073         0.169995
 H         0.184868         2.426658        -1.280019
 H        -0.596501         1.038500        -2.176381
 H        -3.808051         3.397990        -1.508310
 H        -2.588082         3.222985        -2.886001
 H        -3.857223         1.059626        -0.197584
 H        -2.432111        -0.369854         0.780910
 H        -1.540005        -0.899027        -0.598676
 H        -0.777673         2.998254         1.023220
 H        -2.342618         2.229059         1.320167
