19
Iteration:  3099charge 0 multiplicity 1
 O         0.207241         0.251683         0.851520
 C        -0.697121         1.106739         0.110399
 C        -0.562788         1.707223        -1.315751
 C        -1.945391         2.298527        -0.891194
 C        -2.987459         2.602369        -1.937276
 O        -3.445672         1.209850        -2.026749
 C        -2.882805         1.175602        -0.574016
 C        -1.960286         0.133913        -0.106874
 C        -1.353574         2.519826         0.500403
 H         1.121150         0.339315         0.499362
 H         0.169542         2.572358        -1.239415
 H        -0.498550         0.997571        -2.221467
 H        -3.829411         3.252482        -1.547300
 H        -2.660396         3.218519        -2.844683
 H        -3.639036         1.434735         0.149209
 H        -2.345060        -0.257212         0.770476
 H        -1.743589        -0.698810        -0.811490
 H        -0.493874         3.263631         0.728140
 H        -2.212535         2.546496         1.118002
