19
Iteration:  3115charge 0 multiplicity 1
 O         0.298568         0.335689         0.843175
 C        -0.707202         1.035764         0.173949
 C        -0.629154         1.587899        -1.277875
 C        -1.965178         2.317921        -0.904169
 C        -3.050065         2.719175        -1.968385
 O        -3.380051         1.255344        -2.046758
 C        -2.941343         1.153048        -0.722064
 C        -1.943703         0.171625        -0.040266
 C        -1.341020         2.460128         0.575425
 H         1.044782         0.382328         0.269610
 H         0.174629         2.249263        -1.535456
 H        -0.624219         0.844985        -2.034730
 H        -3.858129         3.249642        -1.434417
 H        -2.806115         2.963976        -2.991605
 H        -3.912122         1.476565        -0.094415
 H        -2.220911        -0.365684         0.964071
 H        -1.659397        -0.624478        -0.732497
 H        -0.608464         3.210470         0.487041
 H        -1.909997         2.401803         1.546497
