19
Iteration:  3772
 O         0.359128         0.586596         0.867166
 C        -0.735795         1.048679         0.134480
 C        -0.594912         1.452830        -1.332927
 C        -2.048279         2.200105        -0.840469
 C        -2.887088         2.721808        -2.001452
 O        -3.473911         1.359958        -1.996792
 C        -2.981464         1.066417        -0.594230
 C        -1.975055         0.017556        -0.063787
 C        -1.327269         2.547885         0.486403
 H         0.801834        -0.262960         0.616570
 H         0.263567         2.232812        -1.415528
 H        -0.484441         0.666316        -2.143825
 H        -3.729449         3.395391        -1.887781
 H        -2.521126         2.944720        -3.056131
 H        -3.952649         1.220441         0.043670
 H        -2.424728        -0.431776         0.824587
 H        -1.723923        -0.886698        -0.748289
 H        -0.429619         3.165172         0.329385
 H        -1.982144         2.752750         1.286583
