19
Iteration:   898
 O         0.432002         0.499030         0.845139
 C        -0.756271         0.965111         0.154104
 C        -0.621172         1.605233        -1.338005
 C        -1.969049         2.288228        -0.837642
 C        -2.933309         2.723311        -2.021161
 O        -3.529911         1.293223        -2.007566
 C        -2.949852         1.144554        -0.651554
 C        -2.017555         0.021823        -0.078632
 C        -1.364457         2.357252         0.559300
 H         1.084903         1.109987         0.583445
 H         0.216911         2.275786        -1.254492
 H        -0.410479         0.981522        -2.237942
 H        -3.770021         3.476433        -1.707405
 H        -2.508942         2.958426        -3.009796
 H        -3.613503         1.382804         0.068411
 H        -2.363464        -0.565394         0.777648
 H        -1.725739        -0.509258        -0.965655
 H        -0.561724         3.149798         0.740762
 H        -2.062032         2.386777         1.394066
