19
Iteration:   642
 O         0.432357         0.498270         0.798719
 C        -0.772789         1.027938         0.160391
 C        -0.707138         1.684783        -1.251653
 C        -1.978440         2.360803        -0.844575
 C        -3.009188         2.685004        -1.927734
 O        -3.362942         1.190958        -2.096553
 C        -2.941335         1.131191        -0.698786
 C        -1.991389         0.067235        -0.147508
 C        -1.337701         2.381767         0.659316
 H         0.786105        -0.181470         0.266561
 H         0.065732         2.527110        -1.351830
 H        -0.627133         1.087698        -2.205479
 H        -3.790609         3.230424        -1.534292
 H        -2.775267         3.095468        -2.865255
 H        -3.809059         1.297109        -0.062565
 H        -2.477226        -0.379228         0.681064
 H        -1.663716        -0.593262        -0.916773
 H        -0.515377         2.950226         1.027823
 H        -2.058330         2.469217         1.556360
