19
Iteration:  2831charge 0 multiplicity 1
 O         0.381486         0.479923         0.605725
 C        -0.820692         1.049420         0.117507
 C        -0.620277         1.630590        -1.228991
 C        -1.946320         2.288751        -0.841048
 C        -2.864546         2.616321        -2.029657
 O        -3.479051         1.265044        -1.972860
 C        -2.979796         1.150017        -0.566239
 C        -2.011013         0.048455        -0.035724
 C        -1.306797         2.508228         0.535298
 H         0.217763        -0.163777         1.264477
 H         0.301549         2.313847        -1.253793
 H        -0.326241         0.789477        -1.984848
 H        -3.715899         3.386458        -1.965191
 H        -2.439555         2.724874        -3.037032
 H        -3.721484         1.414802         0.309812
 H        -2.276207        -0.354883         0.882944
 H        -1.816749        -0.736166        -0.696847
 H        -0.540254         3.173068         0.846412
 H        -2.143927         2.630153         1.309539
