19
Iteration:   946
 O         0.373537         0.333213         0.739842
 C        -0.696368         1.075050         0.149840
 C        -0.683083         1.617708        -1.318920
 C        -2.017640         2.265416        -0.869398
 C        -3.015794         2.761349        -1.959794
 O        -3.363194         1.240049        -2.068700
 C        -2.973818         1.126197        -0.614527
 C        -1.949797         0.007370        -0.018145
 C        -1.333055         2.533448         0.517569
 H         0.684708         0.699509         1.648428
 H         0.063115         2.439613        -1.592884
 H        -0.718754         0.818747        -2.125911
 H        -3.728532         3.437635        -1.467615
 H        -2.564811         3.215832        -2.892161
 H        -3.720148         1.345923         0.033012
 H        -2.139041        -0.297241         1.070240
 H        -1.860668        -0.809144        -0.866701
 H        -0.702574         3.474774         0.621698
 H        -2.055856         2.448634         1.408599
