19
Iteration:  2608
 O         0.363570         0.432368         0.693154
 C        -0.802365         1.056795         0.160623
 C        -0.744566         1.520361        -1.337368
 C        -1.947839         2.341859        -0.832218
 C        -3.046709         2.667821        -2.011443
 O        -3.366138         1.265898        -2.006439
 C        -2.932655         1.149162        -0.653603
 C        -1.925082         0.159243         0.027592
 C        -1.231562         2.473328         0.559079
 H        -0.015469        -0.341262         1.239513
 H         0.188610         2.197043        -1.332083
 H        -0.742272         0.847819        -2.216941
 H        -3.971337         3.192085        -1.651770
 H        -2.564508         2.877035        -3.041782
 H        -3.644470         1.341039         0.094983
 H        -2.379381        -0.188205         0.888247
 H        -1.625969        -0.773793        -0.516101
 H        -0.362275         3.195080         0.433835
 H        -1.882635         2.657304         1.381344
