19
Iteration:     6charge 0 multiplicity 1
 O         0.438656         0.477902         0.733762
 C        -0.692848         1.024103         0.139705
 C        -0.658391         1.620691        -1.244870
 C        -1.992320         2.324238        -0.806136
 C        -3.016798         2.733194        -1.918879
 O        -3.409072         1.260192        -2.051436
 C        -2.909271         1.064560        -0.720270
 C        -1.959696         0.040857        -0.161647
 C        -1.429387         2.426954         0.573479
 H         0.274791         0.220828         1.698005
 H         0.114961         2.403750        -1.361390
 H        -0.641287         1.012835        -2.174435
 H        -3.905796         3.225701        -1.476251
 H        -2.590589         3.133723        -2.859652
 H        -3.658610         1.152014         0.116003
 H        -2.248378        -0.451682         0.782743
 H        -1.672618        -0.672986        -0.952854
 H        -0.733038         3.301775         0.754747
 H        -2.116661         2.642449         1.433054
