19
Iteration:  3279
 O         0.433075         0.581841         0.797557
 C        -0.665961         1.077718         0.138251
 C        -0.641163         1.490891        -1.310145
 C        -1.980325         2.161416        -0.885562
 C        -2.848284         2.822931        -1.886351
 O        -3.511619         1.378173        -2.082370
 C        -3.015139         1.039069        -0.680914
 C        -2.037150         0.001626        -0.033427
 C        -1.459690         2.309276         0.536956
 H         1.124577         1.290427         0.932329
 H         0.197938         2.155227        -1.370436
 H        -0.416150         0.743377        -2.036814
 H        -3.600039         3.664291        -1.520488
 H        -2.279992         2.962329        -2.866029
 H        -3.708038         1.411735        -0.015421
 H        -2.413359        -0.499194         0.923003
 H        -1.604984        -0.730326        -0.785455
 H        -0.711762         3.070936         0.564019
 H        -2.180110         2.329174         1.406023
