19
Iteration:  1359charge 0 multiplicity 1
 O         0.471818         0.627089         0.838817
 C        -0.690454         1.027506         0.172200
 C        -0.649286         1.583618        -1.339677
 C        -2.045022         2.163233        -0.836175
 C        -2.904446         2.768125        -1.896800
 O        -3.405892         1.407311        -2.121740
 C        -3.039598         0.977075        -0.619798
 C        -1.989367        -0.009459        -0.112251
 C        -1.416990         2.375901         0.524015
 H         0.222038        -0.118665         1.358063
 H         0.075248         2.440716        -1.586503
 H        -0.758735         0.865179        -2.192078
 H        -3.686368         3.458546        -1.551663
 H        -2.311065         3.123853        -2.791289
 H        -3.993357         1.406691        -0.013064
 H        -2.134410        -0.528799         0.725502
 H        -1.665414        -0.749468        -0.761683
 H        -0.591056         3.106564         0.338687
 H        -1.999958         2.414331         1.523328
