19
Iteration:  2560charge 0 multiplicity 1
 O         0.403761         0.578012         0.691570
 C        -0.743745         1.017470         0.139237
 C        -0.598948         1.508965        -1.259664
 C        -1.949114         2.217626        -0.959433
 C        -2.850903         2.715606        -2.052515
 O        -3.599847         1.390067        -1.904958
 C        -3.006107         1.145835        -0.637327
 C        -1.986615         0.026592        -0.024298
 C        -1.309841         2.358189         0.515359
 H         0.491460         0.793586         1.609241
 H         0.134758         2.202805        -1.491609
 H        -0.645332         0.762074        -2.029924
 H        -3.526929         3.486652        -1.700983
 H        -2.294945         2.743031        -2.957418
 H        -3.700160         1.264781         0.166651
 H        -2.334273        -0.445412         0.945827
 H        -1.741019        -0.849667        -0.620665
 H        -0.513240         3.082761         0.596615
 H        -2.008732         2.188406         1.455395
