19
Iteration:  1779
 O         0.328723         0.489460         0.792849
 C        -0.756211         1.002568         0.128587
 C        -0.725249         1.565258        -1.301072
 C        -1.944324         2.364752        -0.894519
 C        -3.083048         2.675275        -1.900074
 O        -3.317953         1.250038        -2.077504
 C        -2.904208         1.133728        -0.643926
 C        -2.002234         0.080797        -0.016192
 C        -1.231528         2.510268         0.501754
 H         0.179758        -0.485664         0.663726
 H         0.253754         2.079904        -1.553202
 H        -0.844041         0.707758        -2.043545
 H        -3.787805         3.297045        -1.312745
 H        -2.725316         3.141530        -2.805866
 H        -3.804400         1.370798        -0.048042
 H        -2.509192        -0.109227         1.016255
 H        -1.602113        -0.822438        -0.534647
 H        -0.332804         3.141240         0.504408
 H        -1.848322         2.456789         1.392498
