19
Iteration:  4246charge 0 multiplicity 1
 O         0.349227         0.374954         0.774036
 C        -0.685125         1.040415         0.170807
 C        -0.646765         1.656567        -1.207864
 C        -1.996107         2.286324        -0.839888
 C        -2.897499         2.625258        -2.080011
 O        -3.494358         1.319031        -1.958858
 C        -2.961159         1.089302        -0.680388
 C        -1.940543         0.056755        -0.164579
 C        -1.445875         2.522896         0.620394
 H         1.123756         1.034794         0.861603
 H         0.074939         2.432984        -1.371570
 H        -0.471064         0.979712        -2.077499
 H        -3.755972         3.417162        -2.039405
 H        -2.234575         2.643221        -2.902607
 H        -3.792404         1.162318         0.077264
 H        -2.111782        -0.597328         0.692600
 H        -1.493405        -0.634728        -0.958521
 H        -0.668866         3.284676         0.646863
 H        -2.094994         2.434301         1.433770
