19
Iteration:   232
 O         0.322335         0.657214         0.861243
 C        -0.744543         0.930628         0.023534
 C        -0.642656         1.782298        -1.242311
 C        -1.976860         2.277552        -0.826242
 C        -3.029750         2.730667        -1.893422
 O        -3.400317         1.327682        -2.011700
 C        -2.854689         1.072969        -0.722286
 C        -1.894316        -0.014173        -0.290335
 C        -1.442510         2.220382         0.636374
 H         0.304459        -0.301272         1.051687
 H         0.145103         2.561467        -1.116044
 H        -0.123864         1.277855        -2.104045
 H        -3.872701         3.333104        -1.509490
 H        -2.700972         3.167193        -2.935311
 H        -3.574279         1.157062         0.126957
 H        -2.307578        -0.511290         0.589204
 H        -1.573805        -0.823191        -0.962200
 H        -0.617897         2.928930         0.789187
 H        -2.022735         2.052584         1.473804
