19
Iteration:  2853
 O         0.372508         0.367441         0.759846
 C        -0.750547         1.004309         0.139029
 C        -0.636449         1.618654        -1.269598
 C        -1.952808         2.316678        -0.930853
 C        -3.045392         2.668990        -1.996380
 O        -3.442411         1.225587        -1.965368
 C        -2.867066         1.195280        -0.677176
 C        -1.986367         0.119228        -0.063282
 C        -1.270658         2.490317         0.551417
 H         0.140937         0.214796         1.735792
 H         0.215097         2.323724        -1.561200
 H        -0.697192         0.817980        -2.128109
 H        -3.968633         3.248874        -1.685823
 H        -2.740661         3.055060        -2.974048
 H        -3.752222         1.378639         0.111056
 H        -2.335763        -0.420453         0.739371
 H        -1.715296        -0.550236        -0.823758
 H        -0.615219         3.309373         0.578276
 H        -1.909614         2.762022         1.477816
