19
Iteration:  1001charge 0 multiplicity 1
 O         0.470314         0.606423         0.762664
 C        -0.746274         0.977657         0.093314
 C        -0.668452         1.504758        -1.373043
 C        -1.976300         2.246675        -0.822298
 C        -2.950416         2.642957        -1.936382
 O        -3.379539         1.359463        -1.992149
 C        -2.991211         1.118632        -0.642209
 C        -2.017622         0.069552        -0.090172
 C        -1.381408         2.420333         0.534904
 H         0.181076         0.120687         1.580663
 H         0.160454         2.280688        -1.530752
 H        -0.903341         0.885271        -2.267227
 H        -3.736125         3.402566        -1.548744
 H        -2.345220         3.087479        -2.803465
 H        -3.774219         1.366316         0.031627
 H        -2.387828        -0.394238         0.916234
 H        -1.766393        -0.917651        -0.748062
 H        -0.546784         3.177759         0.684102
 H        -2.160595         2.370760         1.404809
