19
Iteration:  3962charge 0 multiplicity 1
 O         0.344896         0.517634         0.793295
 C        -0.754153         1.005601         0.079813
 C        -0.696001         1.585138        -1.306116
 C        -1.989828         2.301879        -0.899396
 C        -2.943434         2.649761        -2.009383
 O        -3.366119         1.256560        -2.031770
 C        -2.950596         1.138703        -0.566604
 C        -2.022297         0.113301        -0.018879
 C        -1.281362         2.363963         0.508969
 H         0.629476         1.162508         1.488136
 H         0.069050         2.375353        -1.469706
 H        -0.662312         0.878476        -2.190763
 H        -3.780729         3.243929        -1.672992
 H        -2.641397         3.009781        -2.959522
 H        -3.790338         1.332540         0.056383
 H        -2.243511        -0.279699         0.980086
 H        -1.958979        -0.833465        -0.592543
 H        -0.368995         2.987179         0.502329
 H        -1.873701         2.427364         1.431028
