19
Iteration:  4739
 O         0.286026         0.359951         0.875206
 C        -0.740003         1.087267         0.144314
 C        -0.639415         1.706137        -1.288517
 C        -1.991712         2.272319        -0.863292
 C        -2.991725         2.774226        -1.906960
 O        -3.404919         1.226023        -2.107832
 C        -2.860165         1.037606        -0.706563
 C        -1.883310         0.089743        -0.141313
 C        -1.392983         2.405978         0.601845
 H         1.106884         0.843052         1.184472
 H         0.152194         2.521192        -1.541322
 H        -0.602714         0.967354        -2.112678
 H        -4.024216         3.073264        -1.537836
 H        -2.777985         3.190116        -2.933340
 H        -3.780609         1.290783        -0.121546
 H        -2.409932        -0.299108         0.794190
 H        -1.505376        -0.675777        -0.767987
 H        -0.697892         3.310584         0.566422
 H        -2.180154         2.509064         1.340208
