19
Iteration:   207charge 0 multiplicity 1
 O         0.482575         0.568807         0.892715
 C        -0.694325         0.973137         0.148913
 C        -0.585417         1.728214        -1.242676
 C        -1.975791         2.235151        -0.817502
 C        -2.959167         2.754504        -1.932850
 O        -3.585005         1.406118        -2.103938
 C        -2.905270         0.995381        -0.777260
 C        -1.845407        -0.050561        -0.235168
 C        -1.595158         2.395363         0.685598
 H         0.709153        -0.226906         0.457036
 H         0.258200         2.329644        -1.329836
 H        -0.584507         1.106929        -2.111459
 H        -3.746745         3.425397        -1.496693
 H        -2.635017         3.180632        -2.861773
 H        -3.601877         1.063341         0.072619
 H        -2.196714        -0.768251         0.518658
 H        -1.327924        -0.711015        -1.008499
 H        -0.980506         3.195899         0.874778
 H        -2.145639         2.037225         1.540628
