19
Iteration:   213
 O         0.459226         0.598952         0.879666
 C        -0.750794         1.016860         0.143442
 C        -0.533552         1.702614        -1.206408
 C        -1.992556         2.260832        -0.827037
 C        -3.004811         2.766749        -1.914955
 O        -3.586906         1.382556        -2.090493
 C        -2.892394         1.008322        -0.775312
 C        -1.820111        -0.053415        -0.238905
 C        -1.525316         2.300765         0.655585
 H         0.707028        -0.355539         0.637620
 H         0.333142         2.456098        -1.378069
 H        -0.586102         1.209044        -2.233861
 H        -3.793740         3.455046        -1.607310
 H        -2.483535         3.147314        -2.847318
 H        -3.734955         1.140012        -0.067924
 H        -2.208123        -0.636660         0.618943
 H        -1.474117        -0.687672        -1.032705
 H        -0.761145         3.100397         1.018040
 H        -2.337808         2.039516         1.454108
