19
Iteration:  3057
 O         0.387239         0.479237         0.833032
 C        -0.769273         1.013561         0.188825
 C        -0.654785         1.526300        -1.343448
 C        -1.938739         2.314621        -0.918549
 C        -2.900572         2.672010        -1.952552
 O        -3.552831         1.333823        -1.999167
 C        -2.951357         1.157991        -0.682143
 C        -1.963406         0.023090        -0.154374
 C        -1.328598         2.399365         0.583272
 H         0.902033         1.031518         1.506928
 H         0.042360         2.322348        -1.449604
 H        -0.584077         0.709835        -2.013646
 H        -3.593298         3.536579        -1.799694
 H        -2.444846         2.900014        -2.973731
 H        -3.729788         1.428893         0.165738
 H        -2.253871        -0.624172         0.688643
 H        -1.708760        -0.579618        -1.067357
 H        -0.592521         3.181968         0.706359
 H        -1.927371         2.392251         1.463363
