19
Iteration:   361charge 0 multiplicity 1
 O         0.416310         0.458988         0.789526
 C        -0.737143         1.059341         0.139526
 C        -0.550458         1.731978        -1.246568
 C        -2.075773         2.263788        -0.792303
 C        -3.030088         2.756598        -1.833144
 O        -3.440619         1.343350        -2.124278
 C        -2.910892         0.975400        -0.736535
 C        -1.852908        -0.036336        -0.216756
 C        -1.459537         2.417574         0.579883
 H         0.046098         0.047945         1.634311
 H         0.088743         2.569281        -1.129308
 H        -0.455714         1.235175        -2.213007
 H        -3.891699         3.371131        -1.634376
 H        -2.363695         3.238396        -2.560846
 H        -3.839762         1.019339        -0.143204
 H        -2.216068        -0.490407         0.729003
 H        -1.498616        -0.706298        -1.064425
 H        -0.531206         3.068393         0.700778
 H        -2.159253         2.385139         1.522225
