19
Iteration:  1948
 O         0.348744         0.460321         0.636363
 C        -0.812115         1.040642         0.119790
 C        -0.631079         1.478035        -1.234549
 C        -1.967793         2.288031        -0.854836
 C        -2.843968         2.641134        -2.045857
 O        -3.480933         1.281376        -1.971661
 C        -2.971074         1.223121        -0.595447
 C        -2.006594         0.048075         0.064311
 C        -1.297771         2.510234         0.571253
 H         1.049636         1.028005         0.297021
 H         0.268998         2.010944        -1.492627
 H        -0.772570         0.670866        -1.946056
 H        -3.622591         3.399755        -1.871528
 H        -2.437428         2.815669        -3.096433
 H        -3.783487         1.480963         0.009958
 H        -2.388005        -0.501607         0.923563
 H        -1.827114        -0.788379        -0.571936
 H        -0.440569         3.214526         0.704936
 H        -2.185239         2.643897         1.337154
