19
Iteration:   658charge 0 multiplicity 1
 O         0.380362         0.577332         0.763764
 C        -0.756167         0.972645         0.104271
 C        -0.609652         1.617662        -1.267964
 C        -1.984760         2.291672        -0.806374
 C        -2.988279         2.675134        -1.962319
 O        -3.327768         1.294821        -2.031582
 C        -2.944072         1.128706        -0.628681
 C        -2.010133         0.045829        -0.158376
 C        -1.432732         2.361103         0.669508
 H         0.987868         0.425742         0.058868
 H         0.277268         2.221350        -1.181563
 H        -0.756351         0.924810        -2.077002
 H        -3.893924         3.289191        -1.513563
 H        -2.514428         3.105257        -2.910139
 H        -3.897470         1.424096        -0.002807
 H        -2.262578        -0.583788         0.773768
 H        -1.827397        -0.712965        -0.990800
 H        -0.671221         3.193216         0.571175
 H        -2.184869         2.243777         1.383905
