19
Iteration:  4238charge 0 multiplicity 1
 O         0.393683         0.433263         0.799695
 C        -0.754061         1.046861         0.151206
 C        -0.676292         1.632758        -1.176322
 C        -2.033790         2.294156        -0.842563
 C        -2.850974         2.611868        -2.025776
 O        -3.510322         1.299006        -2.024352
 C        -2.971695         1.127529        -0.608304
 C        -1.910182         0.046774        -0.201328
 C        -1.401614         2.453488         0.584376
 H         1.263894         0.949122         0.813817
 H         0.097271         2.455628        -1.352491
 H        -0.649651         0.930303        -2.056094
 H        -3.471078         3.543295        -2.031850
 H        -2.281795         2.721335        -2.987586
 H        -3.758667         1.197452         0.234617
 H        -2.286304        -0.562054         0.697049
 H        -1.619879        -0.607538        -1.096441
 H        -0.658501         3.233604         0.730730
 H        -2.207626         2.451867         1.294537
