19
Iteration:  4632
 O         0.258990         0.308795         0.819953
 C        -0.757748         1.065218         0.058184
 C        -0.519985         1.719910        -1.198990
 C        -1.953826         2.313632        -0.856167
 C        -3.078732         2.635185        -1.950113
 O        -3.287323         1.233379        -2.041045
 C        -2.864440         1.150441        -0.626914
 C        -1.917495         0.049494        -0.169369
 C        -1.501045         2.519791         0.537553
 H         1.075935         0.848187         0.832250
 H         0.348724         2.499483        -1.183427
 H        -0.588954         1.044764        -2.064314
 H        -3.898133         3.070281        -1.355361
 H        -3.251811         2.984316        -2.986617
 H        -3.792837         1.285868        -0.037203
 H        -2.210677        -0.525214         0.780833
 H        -1.944326        -0.641514        -0.987101
 H        -0.650415         3.320950         0.734726
 H        -2.125168         2.580659         1.493846
