19
Iteration:  2932
 O         0.500318         0.511237         0.702370
 C        -0.716901         1.004177         0.144723
 C        -0.655008         1.534451        -1.226780
 C        -1.972614         2.287136        -0.930485
 C        -2.914939         2.698482        -2.018920
 O        -3.484638         1.306098        -2.012891
 C        -2.949266         1.200186        -0.590232
 C        -2.026086         0.024021        -0.076316
 C        -1.430621         2.433363         0.567240
 H         0.370376         0.091644         1.606534
 H         0.064445         2.383102        -1.354801
 H        -0.619241         0.853317        -2.129005
 H        -3.663872         3.491413        -1.771301
 H        -2.333551         2.845375        -2.906144
 H        -3.771634         1.423377         0.190872
 H        -2.377136        -0.425342         0.824410
 H        -1.811870        -0.746824        -0.816738
 H        -0.597015         3.093995         0.773244
 H        -2.136872         2.329429         1.335854
