19
Iteration:  2528charge 0 multiplicity 1
 O         0.399177         0.375188         0.900688
 C        -0.676826         0.968500         0.144272
 C        -0.659854         1.542755        -1.384529
 C        -1.919461         2.311864        -0.939454
 C        -3.015670         2.722867        -1.905515
 O        -3.523840         1.319647        -1.967082
 C        -2.967239         1.139547        -0.660316
 C        -1.939031         0.011330        -0.067039
 C        -1.277125         2.544728         0.375457
 H         0.333605         0.879408         1.781846
 H         0.107455         2.203232        -1.683944
 H        -0.854939         0.809179        -2.175945
 H        -3.810849         3.431318        -1.506614
 H        -2.719236         3.238358        -2.883812
 H        -3.673041         1.333560         0.115549
 H        -2.362131        -0.389550         0.859717
 H        -1.782460        -0.796664        -0.774317
 H        -0.492443         3.290064         0.412853
 H        -1.899735         2.572805         1.383014
