19
Iteration:  2119charge 0 multiplicity 1
 O         0.361832         0.527952         0.623821
 C        -0.758534         1.107319         0.168872
 C        -0.633854         1.473251        -1.299109
 C        -1.965090         2.204385        -0.863425
 C        -2.997206         2.685257        -1.930479
 O        -3.379261         1.293798        -2.102102
 C        -2.968547         1.125843        -0.598565
 C        -2.065757         0.088902         0.089618
 C        -1.231750         2.477027         0.508456
 H         0.099919        -0.031032         1.336717
 H         0.274375         2.083086        -1.417321
 H        -0.808951         0.695388        -2.026650
 H        -3.733005         3.170532        -1.273770
 H        -2.629604         3.163004        -2.809472
 H        -3.766507         1.488285        -0.042357
 H        -2.350815        -0.385627         0.999711
 H        -1.708260        -0.745892        -0.595287
 H        -0.396180         3.315938         0.415630
 H        -1.864437         2.752055         1.372282
