19
Iteration:  3786
 O         0.380921         0.541551         0.962392
 C        -0.720387         0.974372         0.137050
 C        -0.717839         1.544757        -1.376322
 C        -1.958888         2.275061        -0.906985
 C        -2.988883         2.740159        -1.987306
 O        -3.421371         1.229964        -2.046850
 C        -2.956874         1.138584        -0.645574
 C        -1.979891         0.074222        -0.035189
 C        -1.270326         2.480954         0.455390
 H         0.353571        -0.424348         0.807925
 H         0.012928         2.356197        -1.644670
 H        -0.844806         0.794127        -2.143376
 H        -3.808580         3.408656        -1.514694
 H        -2.470992         3.105109        -2.851995
 H        -3.735941         1.375467         0.134808
 H        -2.255321        -0.273865         0.898643
 H        -1.745036        -0.706891        -0.712851
 H        -0.532241         3.257960         0.490951
 H        -1.821101         2.622770         1.418663
