19
Iteration:  2627charge 0 multiplicity 1
 O         0.338315         0.385211         0.779817
 C        -0.710031         1.040013         0.056352
 C        -0.635090         1.629188        -1.384895
 C        -2.018543         2.286941        -0.819964
 C        -3.016905         2.719319        -1.895441
 O        -3.334146         1.179332        -2.106035
 C        -2.967896         1.155178        -0.576026
 C        -2.000683         0.129496         0.058331
 C        -1.224351         2.549098         0.464491
 H        -0.154993        -0.352285         1.201497
 H        -0.035828         2.362764        -1.821859
 H        -0.758076         0.884479        -2.120737
 H        -3.786536         3.212117        -1.298848
 H        -2.787764         3.154688        -2.860010
 H        -3.886205         1.531180        -0.069444
 H        -2.262279        -0.170325         1.097833
 H        -1.836707        -0.892981        -0.322666
 H        -0.413733         3.327997         0.398790
 H        -1.867072         2.393010         1.396929
