19
Iteration:  4136
 O         0.321146         0.459368         0.744953
 C        -0.783444         1.026834         0.153182
 C        -0.720295         1.701627        -1.321746
 C        -1.944864         2.357833        -0.869472
 C        -2.908793         2.625523        -2.019535
 O        -3.341337         1.222194        -2.002379
 C        -2.928497         1.126667        -0.572797
 C        -2.034372         0.033859        -0.108726
 C        -1.337959         2.410417         0.587393
 H         1.003235         1.063894         0.944420
 H         0.067436         2.460272        -1.285674
 H        -0.736368         1.002536        -2.180184
 H        -3.842749         3.258553        -1.750592
 H        -2.346636         2.889439        -2.913083
 H        -3.801329         1.369036         0.167526
 H        -2.353631        -0.502944         0.805320
 H        -1.648223        -0.706619        -0.917493
 H        -0.736402         3.253240         0.898208
 H        -1.998252         2.204398         1.391118
