19
Iteration:  1607
 O         0.494148         0.523697         0.711460
 C        -0.766534         0.962354         0.126451
 C        -0.712541         1.566781        -1.303436
 C        -2.029805         2.268818        -0.826291
 C        -2.870736         2.762074        -1.977399
 O        -3.418667         1.350343        -2.089578
 C        -2.928848         1.073043        -0.654451
 C        -2.054270        -0.010208         0.047065
 C        -1.371090         2.406855         0.526182
 H         0.398759         0.684072         1.644307
 H         0.158070         2.133349        -1.582157
 H        -0.841289         0.861767        -2.097788
 H        -3.648620         3.527899        -1.743685
 H        -2.423020         3.115048        -2.931246
 H        -3.853713         1.331313        -0.097139
 H        -2.563075        -0.135581         1.072758
 H        -1.811290        -0.965506        -0.520113
 H        -0.478237         3.166561         0.838486
 H        -1.948262         2.532897         1.421579
