19
Iteration:  2620
 O         0.291912         0.398796         0.736727
 C        -0.690294         1.077962         0.078986
 C        -0.682803         1.598633        -1.348373
 C        -2.017657         2.292579        -0.899829
 C        -3.022729         2.661010        -1.904500
 O        -3.346528         1.218854        -2.072840
 C        -2.904889         1.117890        -0.579464
 C        -1.990488         0.184918         0.072120
 C        -1.225387         2.494146         0.522317
 H        -0.085402        -0.325204         1.188801
 H         0.155871         2.341349        -1.674859
 H        -0.820757         0.776062        -2.106540
 H        -3.896627         3.282735        -1.543429
 H        -2.703732         3.247009        -2.838634
 H        -3.867690         1.286167        -0.164634
 H        -2.230699        -0.104239         1.074161
 H        -1.819697        -0.691180        -0.587305
 H        -0.349447         3.193670         0.494995
 H        -1.705622         2.579540         1.458314
