19
Iteration:  2768charge 0 multiplicity 1
 O         0.398620         0.468137         0.754452
 C        -0.818497         0.970394         0.090359
 C        -0.690526         1.558795        -1.297232
 C        -1.956818         2.290599        -0.902822
 C        -3.001377         2.687535        -1.837286
 O        -3.365785         1.297312        -2.047790
 C        -2.930058         1.121993        -0.648340
 C        -2.025532         0.055468        -0.039898
 C        -1.244059         2.528791         0.458455
 H         0.147886         0.320286         1.682208
 H         0.227249         2.116739        -1.516484
 H        -0.683171         0.776523        -2.080751
 H        -3.853827         3.227272        -1.331754
 H        -2.653327         3.163337        -2.732469
 H        -3.732303         1.455329        -0.051988
 H        -2.370065        -0.277098         1.043711
 H        -1.841845        -0.934264        -0.529647
 H        -0.427932         3.165668         0.273367
 H        -1.944284         2.770883         1.272050
