19
Iteration:   197
 O         0.463067         0.503365         0.870469
 C        -0.637555         1.005719         0.178111
 C        -0.685270         1.704345        -1.246342
 C        -2.023831         2.212319        -0.841599
 C        -2.932754         2.731771        -1.887268
 O        -3.502900         1.418476        -2.072821
 C        -2.871541         0.991633        -0.756806
 C        -1.844862        -0.088655        -0.281036
 C        -1.606802         2.474569         0.670364
 H         0.998434        -0.049700         0.291146
 H        -0.049994         2.520622        -1.165993
 H        -0.597661         0.954800        -2.003447
 H        -3.644219         3.439473        -1.375061
 H        -2.608966         3.155623        -2.878801
 H        -3.724993         1.076205        -0.035246
 H        -2.290359        -0.708651         0.496192
 H        -1.360588        -0.733643        -1.079633
 H        -1.116748         3.360732         0.779806
 H        -2.348701         2.453963         1.409807
