19
Iteration:  4299charge 0 multiplicity 1
 O         0.283682         0.489828         0.878939
 C        -0.685727         1.014561         0.141446
 C        -0.586137         1.567417        -1.365092
 C        -1.994796         2.306951        -0.895341
 C        -3.115433         2.740565        -1.872250
 O        -3.294631         1.261706        -2.124346
 C        -2.883158         1.141017        -0.629576
 C        -2.043636        -0.014673        -0.144293
 C        -1.356127         2.425087         0.591643
 H         1.092264         1.115834         0.848731
 H         0.241984         2.229416        -1.519262
 H        -0.808298         0.805303        -2.141465
 H        -3.949536         3.270116        -1.380205
 H        -2.754326         3.169480        -2.766055
 H        -3.779430         1.263654        -0.039132
 H        -2.237158        -0.462270         0.766101
 H        -1.719380        -0.803085        -0.811446
 H        -0.537281         3.211119         0.748988
 H        -2.007553         2.595030         1.521828
