19
Iteration:  3600
 O         0.271362         0.408069         0.887612
 C        -0.723386         1.075508         0.152116
 C        -0.568639         1.502200        -1.284688
 C        -1.982725         2.253660        -0.905482
 C        -2.994074         2.619415        -1.997790
 O        -3.555914         1.292989        -1.965817
 C        -2.891544         1.104318        -0.662821
 C        -1.931470         0.109497        -0.098469
 C        -1.289842         2.587658         0.478072
 H         1.141343         0.686366         0.620690
 H         0.241141         2.197437        -1.634896
 H        -0.773185         0.648631        -1.913825
 H        -3.528202         3.515253        -1.735490
 H        -2.435781         2.756610        -2.869355
 H        -3.647745         1.404781         0.126863
 H        -2.506278        -0.454277         0.713964
 H        -1.688833        -0.597653        -0.938827
 H        -0.460783         3.349067         0.487860
 H        -1.833638         2.839623         1.452007
