19
Iteration:  1273charge 0 multiplicity 1
 O         0.398869         0.528569         0.672585
 C        -0.744281         1.008797         0.180279
 C        -0.775401         1.575659        -1.228854
 C        -2.030502         2.250395        -0.824383
 C        -2.932695         2.705112        -1.988925
 O        -3.396562         1.402804        -2.083896
 C        -2.847451         1.034594        -0.694203
 C        -1.931269         0.000005        -0.081614
 C        -1.386452         2.424027         0.614932
 H         0.412004         0.439365         1.692054
 H         0.006593         2.365037        -1.312540
 H        -0.884495         0.894558        -2.070429
 H        -3.772289         3.418612        -1.873362
 H        -2.335860         2.911332        -2.910472
 H        -3.642693         1.170926         0.004656
 H        -2.484748        -0.374061         0.918718
 H        -1.542698        -0.764592        -0.745374
 H        -0.620180         3.152370         0.796866
 H        -2.006907         2.499138         1.565715
