19
Iteration:  4091
 O         0.438683         0.507226         0.750256
 C        -0.742828         1.059440         0.201841
 C        -0.598733         1.628761        -1.284822
 C        -2.004466         2.188112        -0.894014
 C        -2.949327         2.697417        -2.023643
 O        -3.552345         1.386733        -2.035245
 C        -2.884517         1.012064        -0.731828
 C        -1.951686        -0.012961        -0.017259
 C        -1.388555         2.429637         0.562017
 H         0.442749         0.755804         1.661899
 H         0.110084         2.470963        -1.237345
 H        -0.554014         0.853596        -2.066595
 H        -3.644950         3.509892        -1.483791
 H        -2.577040         2.910178        -3.048664
 H        -3.748798         1.181865         0.060104
 H        -2.484078        -0.457833         0.857287
 H        -1.519646        -0.762855        -0.774943
 H        -0.510905         3.041234         0.702773
 H        -2.068374         2.757460         1.355399
