19
Iteration:  3330
 O         0.198995         0.319442         0.747255
 C        -0.726433         1.082469         0.131957
 C        -0.656702         1.739717        -1.332976
 C        -2.076940         2.299476        -0.793035
 C        -2.980250         2.653300        -1.918378
 O        -3.236171         1.218120        -2.056243
 C        -2.923153         1.054543        -0.632572
 C        -1.990766         0.107806        -0.062393
 C        -1.276371         2.483914         0.559347
 H         1.069452         0.854104         0.767940
 H         0.072274         2.655520        -1.477839
 H        -0.578062         1.021120        -2.186090
 H        -3.926387         3.117381        -1.661803
 H        -2.624893         3.062457        -2.893128
 H        -3.782775         1.472580         0.090059
 H        -2.381965        -0.244573         0.929220
 H        -1.751526        -0.655924        -0.689995
 H        -0.540982         3.280566         0.432906
 H        -2.007448         2.364400         1.431633
