19
Iteration:  3532charge 0 multiplicity 1
 O         0.430507         0.628790         0.781160
 C        -0.750525         1.044605         0.191803
 C        -0.715824         1.501255        -1.298631
 C        -1.968504         2.191827        -0.870499
 C        -2.960585         2.725691        -2.015896
 O        -3.410785         1.390214        -2.085684
 C        -2.945161         1.055399        -0.637178
 C        -2.071645        -0.029942         0.018684
 C        -1.295881         2.486393         0.548135
 H         0.586998        -0.367350         0.701514
 H         0.119962         2.187519        -1.447064
 H        -0.759604         0.613875        -2.016406
 H        -3.718626         3.429960        -1.703210
 H        -2.509048         2.887712        -3.020705
 H        -3.863851         1.215001         0.008263
 H        -2.434238        -0.417282         0.906523
 H        -1.581123        -0.831538        -0.638802
 H        -0.357049         3.185157         0.632100
 H        -1.915262         2.697007         1.434892
