19
Iteration:   990charge 0 multiplicity 1
 O         0.424077         0.590358         0.735356
 C        -0.734038         0.996255         0.071925
 C        -0.683029         1.542839        -1.350928
 C        -1.950415         2.271885        -0.886628
 C        -2.953655         2.795436        -1.899452
 O        -3.368522         1.257910        -2.059785
 C        -2.920414         1.105433        -0.604737
 C        -2.058018         0.014124        -0.001218
 C        -1.347564         2.385276         0.551164
 H         0.107024         0.322476         1.685179
 H         0.090103         2.357012        -1.583949
 H        -0.662816         0.768476        -2.164520
 H        -3.888767         3.303078        -1.459818
 H        -2.745809         3.219551        -2.970069
 H        -3.753073         1.280752         0.013886
 H        -2.551095        -0.347388         0.989804
 H        -1.823494        -0.833563        -0.833505
 H        -0.421149         3.037285         0.725238
 H        -2.078331         2.581714         1.441616
