19
Iteration:  1629charge 0 multiplicity 1
 O         0.416256         0.634551         0.692964
 C        -0.836699         0.971838         0.157932
 C        -0.666405         1.409121        -1.291827
 C        -1.985562         2.238263        -0.796824
 C        -2.940180         2.756045        -1.908206
 O        -3.352390         1.301442        -2.114005
 C        -2.965399         1.112713        -0.670835
 C        -2.048351         0.110060        -0.016161
 C        -1.272031         2.411194         0.520725
 H         0.218867         0.032496         1.489553
 H         0.195183         2.060539        -1.431147
 H        -0.714288         0.661770        -2.038352
 H        -3.678901         3.373984        -1.340965
 H        -2.799278         3.273698        -2.869362
 H        -3.804564         1.416722        -0.117927
 H        -2.513889        -0.370884         0.891399
 H        -1.693169        -0.704532        -0.733266
 H        -0.508174         3.276344         0.697822
 H        -1.756868         2.492384         1.463153
