19
Iteration:  1754charge 0 multiplicity 1
 O         0.435057         0.564238         0.890372
 C        -0.673915         0.902398         0.123104
 C        -0.680140         1.538486        -1.406406
 C        -1.977375         2.231127        -0.911628
 C        -3.024784         2.780623        -1.881427
 O        -3.430301         1.337897        -2.130768
 C        -2.976722         1.133106        -0.647402
 C        -1.986913         0.050306         0.057502
 C        -1.305607         2.437794         0.462006
 H         0.337186        -0.339513         1.180934
 H        -0.009447         2.351341        -1.732336
 H        -0.709530         0.758563        -2.212437
 H        -3.804830         3.357609        -1.371469
 H        -2.491283         3.343217        -2.655154
 H        -3.801530         1.401548        -0.092020
 H        -2.498099        -0.179192         1.118548
 H        -1.744952        -0.851568        -0.529328
 H        -0.519683         3.074636         0.420669
 H        -1.937205         2.363458         1.388017
