19
Iteration:  3936charge 0 multiplicity 1
 O         0.306791         0.351832         0.868904
 C        -0.692868         1.078153         0.137991
 C        -0.639928         1.573565        -1.392632
 C        -1.956956         2.324173        -0.952031
 C        -3.036931         2.685795        -1.907036
 O        -3.434038         1.237361        -2.078251
 C        -2.861791         1.084560        -0.624180
 C        -1.965929         0.063399        -0.018918
 C        -1.291998         2.614598         0.470949
 H         0.261278         0.654932         1.818029
 H         0.223378         2.264563        -1.707680
 H        -0.799888         0.827617        -2.158811
 H        -3.911081         3.157626        -1.475432
 H        -3.010989         3.259204        -2.868939
 H        -3.668848         1.256255         0.050345
 H        -2.244381        -0.375268         1.045162
 H        -1.636415        -0.970957        -0.467948
 H        -0.473984         3.312596         0.409941
 H        -1.956745         2.685543         1.350312
