19
Iteration:  2533charge 0 multiplicity 1
 O         0.423613         0.401833         0.906556
 C        -0.681026         0.919576         0.137517
 C        -0.676164         1.519078        -1.387790
 C        -1.926541         2.311349        -0.927889
 C        -3.045203         2.696368        -1.937346
 O        -3.566857         1.364803        -1.998134
 C        -2.911112         1.177078        -0.666539
 C        -1.934737         0.008410        -0.047415
 C        -1.299121         2.551527         0.439950
 H         0.392561         0.837644         1.728469
 H         0.213110         2.214431        -1.720255
 H        -0.931457         0.933645        -2.319659
 H        -3.747744         3.434802        -1.550947
 H        -2.523696         3.032657        -2.883179
 H        -3.674289         1.250202         0.196203
 H        -2.342888        -0.487309         0.858520
 H        -1.677694        -0.917453        -0.656875
 H        -0.427555         3.253566         0.460480
 H        -1.916374         2.573356         1.248006
