19
Iteration:  3571charge 0 multiplicity 1
 O         0.238371         0.461174         1.003848
 C        -0.732393         1.015464         0.057568
 C        -0.546894         1.624278        -1.462187
 C        -1.912487         2.296026        -1.000652
 C        -3.065103         2.620139        -1.948266
 O        -3.410184         1.273047        -1.932494
 C        -2.864429         1.152603        -0.598177
 C        -2.029309         0.035927        -0.052982
 C        -1.284702         2.495478         0.456136
 H         0.967595         0.122849         0.483482
 H         0.205045         2.400587        -1.679726
 H        -0.464861         0.944249        -2.303474
 H        -3.739605         3.336577        -1.384169
 H        -2.848686         3.110879        -2.926175
 H        -3.647718         1.523529         0.125210
 H        -2.532733        -0.285425         0.939124
 H        -2.036133        -0.857353        -0.611820
 H        -0.534074         3.180436         0.733506
 H        -2.011180         2.490161         1.293735
