19
Iteration:  3319
 O         0.285448         0.427329         0.710692
 C        -0.832029         1.031168         0.113042
 C        -0.668305         1.636667        -1.281431
 C        -2.007019         2.342803        -0.813389
 C        -3.014029         2.713174        -1.968758
 O        -3.272539         1.223751        -2.072654
 C        -2.894070         1.159808        -0.653864
 C        -1.971560         0.021447        -0.004099
 C        -1.332912         2.392113         0.584799
 H         0.978341         1.078758         0.899182
 H         0.219593         2.374884        -1.391311
 H        -0.801742         1.007661        -2.183060
 H        -3.925132         3.194192        -1.706352
 H        -2.496927         3.160752        -2.830006
 H        -3.892577         1.278920        -0.064233
 H        -2.296937        -0.429409         0.966430
 H        -1.677294        -0.747902        -0.627579
 H        -0.510541         3.132429         0.614904
 H        -1.779887         2.553576         1.615648
