19
Iteration:  1141charge 0 multiplicity 1
 O         0.461365         0.586409         0.668270
 C        -0.791995         0.975694         0.135886
 C        -0.677097         1.511775        -1.296303
 C        -1.967851         2.261008        -0.868872
 C        -2.912685         2.775281        -1.961473
 O        -3.394277         1.295030        -2.069713
 C        -2.942310         1.174369        -0.679536
 C        -1.977860         0.039348        -0.015328
 C        -1.451033         2.372377         0.654022
 H         0.461260         0.241084         1.640323
 H         0.281835         2.013588        -1.443528
 H        -0.772418         0.915018        -2.198146
 H        -3.620432         3.570166        -1.731671
 H        -2.517584         3.042469        -2.971467
 H        -3.857035         1.038386         0.061091
 H        -2.403486        -0.266818         1.074284
 H        -1.712319        -0.852588        -0.587065
 H        -0.608204         3.062202         0.851455
 H        -2.283904         2.415983         1.319209
