19
Iteration:  3858charge 0 multiplicity 1
 O         0.427303         0.589073         0.753452
 C        -0.723471         1.051430         0.156973
 C        -0.711262         1.534964        -1.257552
 C        -2.007754         2.288310        -0.847936
 C        -2.831271         2.724131        -2.120570
 O        -3.541459         1.288464        -2.009018
 C        -2.961347         1.103656        -0.647797
 C        -1.948765         0.002660         0.005001
 C        -1.330729         2.480652         0.588159
 H         0.096273        -0.358390         0.852150
 H         0.124620         2.180751        -1.550778
 H        -0.814185         0.621097        -1.874532
 H        -3.571866         3.440303        -2.159879
 H        -2.322441         2.569062        -3.108763
 H        -3.686407         1.266213         0.071577
 H        -2.345699        -0.311656         1.054539
 H        -1.630956        -0.857232        -0.673549
 H        -0.471587         3.194286         0.741293
 H        -1.990572         2.591951         1.444548
