19
Iteration:  2921charge 0 multiplicity 1
 O         0.550496         0.551990         0.734371
 C        -0.712598         0.939554         0.199607
 C        -0.703618         1.512330        -1.267925
 C        -1.943877         2.226649        -0.832772
 C        -2.947472         2.706404        -1.996384
 O        -3.481839         1.387377        -2.026335
 C        -2.935361         1.121564        -0.670736
 C        -2.031169        -0.003748        -0.074490
 C        -1.421833         2.453176         0.519360
 H         0.359230         0.449636         1.656838
 H         0.248941         2.099240        -1.388956
 H        -0.753954         0.696164        -2.082240
 H        -3.673197         3.521362        -1.640954
 H        -2.676064         3.067456        -2.983554
 H        -3.743474         1.685876        -0.031599
 H        -2.430512        -0.548411         0.763370
 H        -1.837989        -0.731450        -0.882809
 H        -0.659785         3.176583         0.758192
 H        -2.187162         2.677686         1.201552
