19
Iteration:  3623
 O         0.421375         0.492534         0.812197
 C        -0.743298         0.962295         0.122890
 C        -0.690621         1.530342        -1.294679
 C        -1.954933         2.234805        -0.948339
 C        -2.851077         2.707277        -2.099957
 O        -3.497294         1.306578        -1.942828
 C        -3.001431         1.176625        -0.584784
 C        -2.019040         0.028244         0.016720
 C        -1.351572         2.441930         0.461934
 H         1.022871         1.219292         1.075020
 H         0.154063         2.262772        -1.326380
 H        -0.738433         0.862595        -2.119587
 H        -3.459137         3.536019        -1.830748
 H        -2.380213         2.830111        -3.026097
 H        -3.795369         1.520888         0.167619
 H        -2.405268        -0.468483         1.014250
 H        -1.702963        -0.736999        -0.709411
 H        -0.604398         3.198468         0.717764
 H        -2.150635         2.599256         1.263974
