19
Iteration:  4117charge 0 multiplicity 1
 O         0.461012         0.488117         0.727921
 C        -0.699623         0.974749         0.092456
 C        -0.621184         1.626806        -1.281020
 C        -1.979694         2.285121        -0.815092
 C        -2.905299         2.662912        -2.093219
 O        -3.478254         1.281211        -1.976654
 C        -2.956544         1.169378        -0.653138
 C        -1.985635         0.080881        -0.085849
 C        -1.515502         2.357626         0.659990
 H         0.745380         1.187545         1.304457
 H         0.186190         2.369711        -1.306502
 H        -0.631461         0.836768        -2.102542
 H        -3.578572         3.432248        -1.981750
 H        -2.411804         2.718998        -3.048469
 H        -3.698293         1.432207         0.060814
 H        -2.267432        -0.329926         0.914440
 H        -1.809675        -0.744891        -0.871654
 H        -0.675453         3.046928         0.903083
 H        -2.235979         2.442027         1.437714
