19
Iteration:  4573charge 0 multiplicity 1
 O         0.419486         0.552302         0.843244
 C        -0.738277         0.997536         0.183547
 C        -0.724025         1.577695        -1.316981
 C        -2.056925         2.211754        -0.763839
 C        -2.853660         2.799022        -1.963393
 O        -3.430772         1.369554        -2.140388
 C        -2.933543         1.021180        -0.686361
 C        -1.905681        -0.015334        -0.051769
 C        -1.473189         2.357152         0.541945
 H         0.920234         1.450073         0.919481
 H         0.020894         2.399284        -1.321406
 H        -0.608172         1.005483        -2.291374
 H        -3.664752         3.545174        -1.629025
 H        -2.310390         3.103728        -2.858263
 H        -3.771372         0.946722        -0.055985
 H        -2.347993        -0.502781         0.740579
 H        -1.697118        -0.721466        -0.822010
 H        -0.638746         3.055844         0.609424
 H        -2.114208         2.172554         1.368340
