19
Iteration:  1936charge 0 multiplicity 1
 O         0.369206         0.362741         0.682565
 C        -0.787255         0.966221         0.179485
 C        -0.704654         1.562558        -1.302706
 C        -1.904846         2.325578        -0.897638
 C        -2.953292         2.649748        -2.066828
 O        -3.435251         1.286050        -1.957174
 C        -2.910031         1.144321        -0.583840
 C        -2.055354         0.093764         0.049973
 C        -1.343729         2.517704         0.507386
 H         1.074140         1.087192         0.781490
 H         0.159941         2.263590        -1.323627
 H        -0.720594         0.848839        -2.140444
 H        -3.760163         3.344085        -1.867611
 H        -2.328973         2.908439        -2.962047
 H        -3.581633         1.494089         0.109952
 H        -2.343470        -0.078014         1.058212
 H        -1.776229        -0.749035        -0.583246
 H        -0.454304         3.238680         0.469540
 H        -1.922618         2.726611         1.442829
