19
Iteration:   720charge 0 multiplicity 1
 O         0.345902         0.404463         0.834938
 C        -0.769007         1.011856         0.115682
 C        -0.628683         1.674264        -1.348277
 C        -1.971248         2.238054        -0.912309
 C        -3.039553         2.777657        -1.888836
 O        -3.391371         1.230089        -2.016883
 C        -2.918425         1.095232        -0.684568
 C        -1.935390         0.054746        -0.146433
 C        -1.316669         2.453014         0.560380
 H         0.475111         0.925830         1.610474
 H         0.274243         2.440555        -1.301896
 H        -0.660078         1.045104        -2.323517
 H        -3.843171         3.258916        -1.308459
 H        -2.871636         3.303809        -2.832137
 H        -3.665580         1.224886         0.115482
 H        -2.300506        -0.578675         0.702428
 H        -1.638231        -0.672243        -0.891287
 H        -0.508525         3.307325         0.677124
 H        -2.197626         2.519609         1.332311
