19
Iteration:   749charge 0 multiplicity 1
 O         0.337861         0.502115         0.749476
 C        -0.793924         1.017146         0.083304
 C        -0.570422         1.631578        -1.316004
 C        -1.977326         2.330560        -0.879500
 C        -3.066579         2.724456        -1.940461
 O        -3.396281         1.243230        -1.989980
 C        -2.879497         1.125491        -0.651764
 C        -1.956196         0.016380        -0.158836
 C        -1.296470         2.424068         0.625192
 H         0.057802         0.377027         1.659058
 H         0.271317         2.255740        -1.286531
 H        -0.601646         0.922426        -2.092061
 H        -3.972930         3.281077        -1.560709
 H        -2.627537         3.100025        -2.920571
 H        -3.573654         1.222539         0.185738
 H        -2.321757        -0.467584         0.709787
 H        -1.747013        -0.756602        -0.888470
 H        -0.537915         3.057768         0.841232
 H        -2.136591         2.442848         1.272618
