19
Iteration:  2678charge 0 multiplicity 1
 O         0.505053         0.575469         0.679602
 C        -0.802432         0.984118         0.161324
 C        -0.667921         1.463109        -1.310990
 C        -1.949661         2.226330        -0.922923
 C        -2.870215         2.706833        -2.045537
 O        -3.541990         1.330535        -1.944476
 C        -2.985706         1.141078        -0.641365
 C        -2.021382         0.084405        -0.067299
 C        -1.320231         2.474510         0.633300
 H         0.262469         0.308098         1.645530
 H         0.304191         2.062181        -1.422647
 H        -0.665933         0.658613        -2.156249
 H        -3.581755         3.517118        -1.681904
 H        -2.284665         2.838354        -2.934339
 H        -3.852853         1.348459         0.082304
 H        -2.413407        -0.559738         0.854133
 H        -1.735576        -0.701898        -0.774365
 H        -0.548416         3.164610         0.720603
 H        -2.095853         2.504918         1.442647
