19
Iteration:  1837
 O         0.383094         0.516164         0.805780
 C        -0.777980         1.021102         0.156326
 C        -0.611696         1.566327        -1.333434
 C        -1.916467         2.234221        -0.918507
 C        -2.905354         2.686736        -2.097227
 O        -3.621426         1.349284        -1.963278
 C        -2.953540         1.155076        -0.630110
 C        -1.946721         0.057894        -0.013202
 C        -1.347771         2.374605         0.618072
 H         1.130186         0.358700         0.202054
 H         0.271329         2.211112        -1.389686
 H        -0.707842         0.856348        -2.134122
 H        -3.390817         3.660904        -1.992923
 H        -2.343181         2.651262        -3.041278
 H        -3.752154         1.387075         0.174689
 H        -2.429597        -0.300890         0.799968
 H        -1.697126        -0.861750        -0.571830
 H        -0.478964         3.190958         0.783713
 H        -1.899787         2.445128         1.533788
