19
Iteration:  3488charge 0 multiplicity 1
 O         0.379162         0.482434         0.661366
 C        -0.748578         1.035687         0.150044
 C        -0.637263         1.613000        -1.326667
 C        -2.000544         2.341380        -0.870802
 C        -2.973364         2.612322        -2.057445
 O        -3.348033         1.271882        -2.015148
 C        -2.919676         1.176386        -0.632973
 C        -2.012370         0.085001         0.047928
 C        -1.336426         2.399411         0.635668
 H        -0.016602         0.079259         1.509724
 H         0.258394         2.226744        -1.457363
 H        -0.926666         0.902682        -2.157426
 H        -3.809797         3.199385        -1.836127
 H        -2.398366         2.887177        -2.942920
 H        -3.854501         1.485769         0.008826
 H        -2.383933        -0.282931         0.964891
 H        -1.755973        -0.729758        -0.739126
 H        -0.614031         3.313491         0.720765
 H        -2.063571         2.288389         1.456535
