19
Iteration:  4406
 O         0.235502         0.297997         0.893324
 C        -0.703305         1.056383         0.133755
 C        -0.654358         1.743497        -1.308713
 C        -2.075039         2.258528        -0.843323
 C        -3.006220         2.718101        -1.904710
 O        -3.313656         1.221438        -2.066423
 C        -2.926283         1.048271        -0.643678
 C        -1.891363         0.105180        -0.162916
 C        -1.372704         2.510174         0.527972
 H         1.112840         0.775004         0.970600
 H         0.118287         2.487284        -1.567284
 H        -0.537523         1.003778        -2.102860
 H        -3.886233         3.268144        -1.532990
 H        -2.609206         3.232546        -2.839662
 H        -3.824678         1.307045        -0.129296
 H        -2.035333        -0.470698         0.713859
 H        -1.575271        -0.528041        -0.982040
 H        -0.536947         3.167797         0.493498
 H        -2.043780         2.747196         1.391926
