19
Iteration:   672charge 0 multiplicity 1
 O         0.372318         0.555417         0.771833
 C        -0.776804         1.013370         0.143536
 C        -0.655362         1.616044        -1.294545
 C        -2.003670         2.302312        -0.837052
 C        -2.922007         2.764060        -1.886712
 O        -3.391609         1.304685        -2.047282
 C        -2.901968         1.068082        -0.660147
 C        -1.994674        -0.069701        -0.092867
 C        -1.427868         2.389880         0.556627
 H         1.274538         0.728496         0.276707
 H        -0.045101         2.476163        -1.443484
 H        -0.510807         0.934611        -2.129965
 H        -3.820491         3.519657        -1.779626
 H        -2.372992         3.020895        -2.883750
 H        -3.657552         1.222838         0.118288
 H        -2.427090        -0.515640         0.753381
 H        -1.713195        -0.857442        -0.811911
 H        -0.659148         2.980045         0.963150
 H        -2.187842         2.316048         1.423116
