19
Iteration:  2794
 O         0.502659         0.532789         0.707650
 C        -0.743234         0.999974         0.127889
 C        -0.716289         1.509806        -1.291120
 C        -1.993911         2.321099        -0.897869
 C        -2.951004         2.697660        -2.045183
 O        -3.460174         1.329054        -2.047467
 C        -2.995605         1.157258        -0.622917
 C        -1.991492         0.088522         0.038947
 C        -1.279541         2.391637         0.621053
 H         0.255400        -0.170061         1.355370
 H         0.064301         2.183444        -1.597441
 H        -0.831742         0.690918        -2.003783
 H        -3.732508         3.373759        -1.829227
 H        -2.290798         2.982975        -2.907554
 H        -3.989658         1.348541        -0.072280
 H        -2.320368        -0.315672         1.035303
 H        -1.796825        -0.855082        -0.560811
 H        -0.463688         3.214565         0.789615
 H        -2.128766         2.368633         1.275100
