19
Iteration:  2730charge 0 multiplicity 1
 O         0.310067         0.385805         0.774816
 C        -0.702314         1.069272         0.148837
 C        -0.632284         1.552201        -1.294739
 C        -1.905924         2.334362        -0.921688
 C        -3.030357         2.637093        -1.945510
 O        -3.527725         1.276818        -1.971560
 C        -2.896334         1.196310        -0.663880
 C        -1.935357         0.101586        -0.093517
 C        -1.283251         2.405696         0.477004
 H         0.396507         0.722719         1.727124
 H         0.209627         2.253852        -1.407236
 H        -0.791073         0.747601        -2.041898
 H        -3.812640         3.333229        -1.548833
 H        -2.520339         3.063121        -2.884723
 H        -3.687227         1.465281         0.064062
 H        -2.240233        -0.231581         0.810202
 H        -1.683292        -0.704070        -0.753854
 H        -0.453437         3.178058         0.589564
 H        -1.922326         2.600286         1.331508
