19
Iteration:   636charge 0 multiplicity 1
 O         0.410307         0.483102         0.815074
 C        -0.723889         1.065107         0.140300
 C        -0.671121         1.725516        -1.248100
 C        -2.034649         2.343664        -0.815541
 C        -3.057843         2.702895        -1.937935
 O        -3.364960         1.198789        -2.106773
 C        -2.874047         1.111454        -0.697724
 C        -1.990690         0.021459        -0.124513
 C        -1.329311         2.408375         0.637242
 H         0.514519        -0.368836         0.256937
 H         0.051017         2.517596        -1.287193
 H        -0.786246         1.058080        -2.089234
 H        -3.892321         3.403372        -1.472375
 H        -2.599965         3.076901        -2.922801
 H        -3.847983         1.422930        -0.175332
 H        -2.502367        -0.477736         0.784473
 H        -1.682297        -0.757358        -0.891610
 H        -0.355619         2.999140         0.846012
 H        -2.054006         2.272011         1.398384
