19
Iteration:   368charge 0 multiplicity 1
 O         0.379494         0.436529         0.809848
 C        -0.683885         1.063530         0.115120
 C        -0.526522         1.707258        -1.254577
 C        -2.040654         2.211712        -0.813165
 C        -3.082303         2.765928        -1.855928
 O        -3.449064         1.350404        -2.155743
 C        -2.882487         0.999358        -0.679755
 C        -1.825730         0.004142        -0.208653
 C        -1.467570         2.405226         0.609312
 H         0.055122        -0.090843         1.522015
 H        -0.008026         2.661157        -1.059571
 H        -0.282479         1.369990        -2.264061
 H        -3.988417         3.404627        -1.547362
 H        -2.640757         3.334296        -2.658224
 H        -3.823925         1.059434        -0.116093
 H        -2.210001        -0.517341         0.647310
 H        -1.620073        -0.792509        -0.911581
 H        -0.733988         3.144590         0.694872
 H        -2.132928         2.542545         1.493264
