19
Iteration:  3432charge 0 multiplicity 1
 O         0.336399         0.466443         0.859710
 C        -0.723466         1.030480         0.146458
 C        -0.674160         1.516208        -1.305330
 C        -2.006023         2.257396        -0.891858
 C        -2.959033         2.757037        -1.910808
 O        -3.527220         1.334908        -2.101494
 C        -2.882998         1.074036        -0.710554
 C        -1.847104         0.028973        -0.068657
 C        -1.327834         2.457379         0.546492
 H         0.474559         1.019746         1.602152
 H         0.132684         2.172304        -1.642381
 H        -0.853908         0.774045        -2.143623
 H        -3.716054         3.414551        -1.649497
 H        -2.483684         3.158212        -2.842479
 H        -3.805901         1.106822        -0.011761
 H        -2.184911        -0.422935         0.821566
 H        -1.555165        -0.817348        -0.750580
 H        -0.519333         3.234429         0.642987
 H        -2.004064         2.672021         1.391965
