19
Iteration:  2795charge 0 multiplicity 1
 O         0.513727         0.529157         0.711090
 C        -0.749870         0.990739         0.125444
 C        -0.721587         1.518307        -1.293883
 C        -1.997716         2.322789        -0.896325
 C        -2.943044         2.690066        -2.044435
 O        -3.460938         1.333849        -2.048915
 C        -2.994868         1.158304        -0.618401
 C        -1.990853         0.082794         0.036678
 C        -1.283511         2.394623         0.617750
 H         0.256573        -0.157789         1.325766
 H         0.088332         2.203819        -1.575433
 H        -0.850726         0.653567        -1.981443
 H        -3.741523         3.377594        -1.851042
 H        -2.292201         2.955825        -2.931143
 H        -3.993091         1.372889        -0.043628
 H        -2.292987        -0.267529         1.012047
 H        -1.805788        -0.830684        -0.553559
 H        -0.491674         3.217259         0.813170
 H        -2.151521         2.377880         1.285222
