19
Iteration:  1853charge 0 multiplicity 1
 O         0.382361         0.544203         0.846331
 C        -0.689001         1.005291         0.128319
 C        -0.610039         1.454948        -1.261614
 C        -1.948469         2.211911        -0.911823
 C        -2.871651         2.684507        -1.997548
 O        -3.589166         1.395530        -1.943573
 C        -2.959574         1.124062        -0.659005
 C        -2.042128         0.062729        -0.073286
 C        -1.331042         2.432022         0.485447
 H         1.075214         0.833496         0.277029
 H         0.140115         2.236959        -1.455953
 H        -0.467761         0.626790        -1.992029
 H        -3.662577         3.412735        -1.667575
 H        -2.511352         3.041031        -2.989592
 H        -3.720201         1.477022         0.125556
 H        -2.216548        -0.561746         0.914136
 H        -1.745816        -0.748721        -0.757351
 H        -0.592564         3.146914         0.557310
 H        -2.187759         2.390987         1.247486
