19
Iteration:  4932charge 0 multiplicity 1
 O         0.397451         0.547770         0.826970
 C        -0.703192         0.960079         0.196918
 C        -0.697103         1.588224        -1.248890
 C        -1.990776         2.322832        -0.846485
 C        -2.890028         2.722538        -1.990228
 O        -3.485648         1.379043        -2.105282
 C        -2.974088         1.048174        -0.771051
 C        -1.896745        -0.036659        -0.077604
 C        -1.451524         2.364508         0.657501
 H         1.031582         1.275600         0.775557
 H         0.185251         2.249934        -1.340593
 H        -0.696148         0.901618        -2.113910
 H        -3.764242         3.406358        -1.885875
 H        -2.441629         2.902692        -3.006879
 H        -3.687384         1.199826         0.034549
 H        -2.370685        -0.685480         0.669599
 H        -1.498193        -0.669675        -0.896645
 H        -0.755263         3.253190         0.777510
 H        -1.969350         2.295306         1.621451
