19
Iteration:  3738charge 0 multiplicity 1
 O         0.407024         0.572920         0.913608
 C        -0.704326         0.987704         0.122891
 C        -0.584519         1.466990        -1.337721
 C        -1.938665         2.300811        -0.945164
 C        -2.935611         2.695344        -2.144550
 O        -3.560113         1.312484        -1.920083
 C        -2.915832         1.174603        -0.655615
 C        -2.028628         0.045008        -0.035312
 C        -1.397541         2.380299         0.598694
 H         1.121370         0.471932         0.278977
 H         0.208126         2.236290        -1.335925
 H        -0.607819         0.772860        -2.257835
 H        -3.586808         3.436120        -1.833424
 H        -2.487809         2.836984        -3.176801
 H        -3.685216         1.486206         0.182277
 H        -2.531215        -0.332114         0.884716
 H        -1.835784        -0.773761        -0.809446
 H        -0.564176         3.058254         0.877033
 H        -2.138427         2.627915         1.286873
