19
Iteration:   783
 O         0.506995         0.536853         0.738540
 C        -0.732550         0.998977         0.137689
 C        -0.641393         1.618999        -1.275648
 C        -2.041456         2.235124        -0.784657
 C        -2.925625         2.737911        -1.966863
 O        -3.505214         1.363270        -2.081009
 C        -2.950746         0.985400        -0.633731
 C        -1.961272         0.001081        -0.078849
 C        -1.396421         2.504374         0.589110
 H         0.348927        -0.348319         0.937506
 H         0.215944         2.252327        -1.436540
 H        -0.544962         0.919734        -2.070281
 H        -3.783170         3.504003        -2.046930
 H        -2.228489         2.948220        -2.841950
 H        -3.839178         1.265244        -0.098879
 H        -2.396197        -0.193426         0.871989
 H        -1.687862        -0.838772        -0.669361
 H        -0.724963         3.183894         0.897742
 H        -2.206154         2.523480         1.312789
