19
Iteration:  3102
 O         0.226950         0.259952         0.848584
 C        -0.705123         1.101461         0.125057
 C        -0.561770         1.691481        -1.293734
 C        -1.941188         2.281514        -0.897727
 C        -2.996540         2.605398        -1.938192
 O        -3.434342         1.217688        -2.039169
 C        -2.894624         1.162268        -0.597423
 C        -1.956536         0.191306        -0.114188
 C        -1.336086         2.487799         0.495187
 H         1.169403         0.274010         0.474883
 H         0.095178         2.514809        -1.335272
 H        -0.640354         1.026134        -2.090344
 H        -3.869726         3.232248        -1.567625
 H        -2.725012         3.266769        -2.834864
 H        -3.678924         1.431141         0.281704
 H        -2.429002        -0.249002         0.864451
 H        -1.689213        -0.617529        -0.785019
 H        -0.621250         3.208447         0.737181
 H        -2.206461         2.600124         1.179483
