19
Iteration:   654charge 0 multiplicity 1
 O         0.394126         0.566162         0.771017
 C        -0.775021         0.948842         0.135280
 C        -0.646397         1.633358        -1.280925
 C        -1.958824         2.317911        -0.830376
 C        -2.981205         2.669366        -1.961771
 O        -3.333563         1.274729        -2.041265
 C        -2.976336         1.130908        -0.649079
 C        -2.003798         0.095221        -0.170233
 C        -1.406965         2.362947         0.700734
 H         1.072004         0.249353         0.050640
 H         0.301212         2.295593        -1.160275
 H        -0.711124         0.921102        -2.158578
 H        -3.831887         3.076372        -1.541318
 H        -2.653751         3.108853        -2.841450
 H        -3.842656         1.321530         0.035263
 H        -2.220697        -0.545290         0.699890
 H        -1.807883        -0.662399        -0.916379
 H        -0.673462         3.161968         0.583616
 H        -2.230232         2.315697         1.475687
