19
Iteration:   316
 O         0.492371         0.622868         0.649058
 C        -0.718412         0.978219         0.081592
 C        -0.646820         1.707862        -1.196196
 C        -1.980413         2.319444        -0.718212
 C        -2.947203         2.758069        -1.911415
 O        -3.291486         1.289300        -2.098001
 C        -3.004861         1.086223        -0.714216
 C        -2.023083        -0.003260        -0.161099
 C        -1.497683         2.191040         0.667731
 H         0.513332         0.496829         1.620409
 H         0.172143         2.338470        -1.136431
 H        -0.716809         1.096802        -2.063920
 H        -3.861792         3.360637        -1.689770
 H        -2.572562         3.126676        -2.817701
 H        -3.956263         1.276800        -0.213093
 H        -2.509183        -0.528632         0.683078
 H        -1.712609        -0.768495        -0.935716
 H        -0.943812         3.087554         0.944521
 H        -2.405026         2.066066         1.426341
