19
Iteration:  3344
 O         0.238943         0.212214         0.837715
 C        -0.689735         1.072069         0.039397
 C        -0.675341         1.748197        -1.316880
 C        -1.988344         2.329832        -0.821148
 C        -3.023746         2.645253        -1.932661
 O        -3.297431         1.177667        -2.061467
 C        -2.973178         1.127679        -0.641177
 C        -1.901261         0.149990        -0.067117
 C        -1.371908         2.581300         0.561890
 H         1.151123         0.373441         0.748144
 H         0.005807         2.621044        -1.353880
 H        -0.687629         1.229432        -2.288528
 H        -3.814406         3.097294        -1.502976
 H        -2.546578         3.043901        -2.859575
 H        -3.963738         1.051043        -0.172118
 H        -2.124596        -0.247143         0.949740
 H        -1.655860        -0.736403        -0.758697
 H        -0.595026         3.319622         0.665919
 H        -1.967738         2.742003         1.506759
