19
Iteration:  3382charge 0 multiplicity 1
 O         0.336902         0.507298         0.775608
 C        -0.794954         1.023562         0.167268
 C        -0.549511         1.564385        -1.227219
 C        -1.936729         2.291323        -0.918473
 C        -2.895869         2.666960        -1.937728
 O        -3.465715         1.281251        -2.014416
 C        -2.972734         1.113187        -0.687890
 C        -1.999147         0.051189        -0.140020
 C        -1.397636         2.395507         0.587460
 H         1.063179         1.179286         0.612067
 H         0.261995         2.310686        -1.214778
 H        -0.478139         0.952680        -2.123036
 H        -3.743014         3.413895        -1.548270
 H        -2.795304         3.113303        -2.913320
 H        -3.691614         1.398598         0.049107
 H        -2.301620        -0.496968         0.782320
 H        -1.638728        -0.749823        -0.838128
 H        -0.558191         3.127691         0.695117
 H        -2.117642         2.449155         1.421346
