19
Iteration:   429
 O         0.437446         0.607951         0.837430
 C        -0.757473         1.013808         0.173965
 C        -0.709993         1.708756        -1.271369
 C        -2.049863         2.303217        -0.764408
 C        -2.913352         2.726201        -1.876200
 O        -3.372536         1.370155        -2.135621
 C        -2.990772         0.967097        -0.640763
 C        -1.936695        -0.024479        -0.260662
 C        -1.411760         2.311911         0.594497
 H         0.345987        -0.290080         0.620491
 H         0.001192         2.572370        -1.138154
 H        -0.599655         1.156695        -2.227323
 H        -3.746012         3.364422        -1.679440
 H        -2.375612         3.076182        -2.854131
 H        -3.808117         0.950940         0.097002
 H        -2.276714        -0.672096         0.634588
 H        -1.467483        -0.608815        -1.091294
 H        -0.429432         3.017171         0.702191
 H        -2.057077         2.309672         1.470512
