19
Iteration:   928charge 0 multiplicity 1
 O         0.354779         0.418819         0.727483
 C        -0.765611         0.999207         0.123315
 C        -0.700712         1.625573        -1.358408
 C        -1.996228         2.329231        -0.796650
 C        -2.903327         2.675887        -1.974085
 O        -3.432577         1.281846        -1.987275
 C        -2.879161         1.093910        -0.656631
 C        -1.950334         0.107763        -0.065405
 C        -1.357314         2.411248         0.561529
 H         0.638307         1.142044         1.399589
 H         0.107889         2.357487        -1.268042
 H        -0.773208         0.875111        -2.132941
 H        -3.797583         3.310098        -1.788006
 H        -2.435370         2.850051        -2.917307
 H        -3.855714         1.310151         0.114218
 H        -2.371613        -0.295453         0.841616
 H        -1.670365        -0.606237        -0.811394
 H        -0.514200         3.020032         0.557665
 H        -2.064225         2.501265         1.376086
