19
Iteration:   456
 O         0.427903         0.537785         0.829051
 C        -0.699729         1.024051         0.119581
 C        -0.710970         1.679886        -1.217895
 C        -2.035479         2.332529        -0.769150
 C        -2.936316         2.736126        -1.956383
 O        -3.416678         1.391821        -2.145811
 C        -2.934862         1.005880        -0.778862
 C        -1.888175        -0.052028        -0.125382
 C        -1.469080         2.317541         0.685163
 H         0.844217         0.107790         0.121708
 H         0.064254         2.435020        -1.319652
 H        -0.831900         1.083991        -2.156242
 H        -3.877830         3.412166        -1.684567
 H        -2.600957         3.168616        -2.888092
 H        -3.731486         1.074358        -0.024762
 H        -2.218542        -0.234716         0.845150
 H        -1.542854        -0.910063        -0.660163
 H        -0.781329         2.992706         0.945218
 H        -2.019901         2.069913         1.626631
