19
Iteration:  4668
 O         0.312905         0.430003         0.834992
 C        -0.725604         1.033597         0.177951
 C        -0.658455         1.694476        -1.255104
 C        -2.079681         2.284111        -0.864773
 C        -2.982262         2.719547        -2.018326
 O        -3.375564         1.323670        -2.109078
 C        -2.888308         1.016557        -0.655303
 C        -1.881091         0.040511        -0.095167
 C        -1.411012         2.382691         0.601083
 H         1.168234         0.919049         0.970886
 H        -0.018352         2.467836        -1.511409
 H        -0.792501         1.103738        -2.150864
 H        -3.668702         3.376335        -1.553434
 H        -2.538243         3.159826        -2.899360
 H        -3.799819         1.110684        -0.023051
 H        -2.287342        -0.367487         0.813558
 H        -1.446208        -0.791787        -0.781202
 H        -0.663167         3.107031         0.558566
 H        -2.051754         2.387839         1.499089
