19
Iteration:  4594
 O         0.326065         0.512385         0.857927
 C        -0.686413         0.996650         0.087829
 C        -0.693404         1.694198        -1.266238
 C        -1.995416         2.288092        -0.770817
 C        -2.913535         2.681305        -1.983865
 O        -3.444297         1.336103        -2.099611
 C        -2.967539         0.984125        -0.750131
 C        -1.923229        -0.014589        -0.128076
 C        -1.407547         2.412920         0.643947
 H         1.024981         1.128897         0.941035
 H         0.110479         2.346980        -1.459201
 H        -0.674755         0.927466        -2.065858
 H        -3.684650         3.460775        -1.664112
 H        -2.379469         3.039637        -2.870396
 H        -3.751641         1.270864        -0.080339
 H        -2.051083        -0.284988         0.858212
 H        -1.653368        -0.900606        -0.734319
 H        -0.683066         3.155211         0.611377
 H        -1.941829         2.358462         1.559751
