19
Iteration:  2426
 O         0.494533         0.500048         0.701525
 C        -0.740852         0.948681         0.160176
 C        -0.728878         1.525685        -1.291246
 C        -1.983710         2.353605        -0.870045
 C        -2.929712         2.666788        -2.029783
 O        -3.452756         1.317823        -1.957792
 C        -2.906805         1.194832        -0.595645
 C        -2.085307         0.028933         0.028423
 C        -1.323106         2.469975         0.422171
 H         0.250272        -0.217280         1.283007
 H         0.194183         2.042018        -1.361308
 H        -0.918412         0.843541        -2.087761
 H        -3.779288         3.458823        -1.756873
 H        -2.332267         2.897126        -2.892088
 H        -3.688017         1.468803         0.125777
 H        -2.449455        -0.450670         1.017714
 H        -1.761951        -0.716356        -0.737047
 H        -0.443635         3.232090         0.507152
 H        -1.969625         2.693264         1.331517
