19
Iteration:    21
 O         0.530284         0.289482         0.846002
 C        -0.674435         1.018773         0.192524
 C        -0.603030         1.641953        -1.233904
 C        -2.020479         2.279495        -0.870083
 C        -3.095316         2.746020        -1.861020
 O        -3.475542         1.232731        -2.091492
 C        -2.920010         1.108655        -0.705904
 C        -1.904449         0.043272        -0.258517
 C        -1.467416         2.633297         0.555502
 H         0.626883         0.793853         1.637689
 H         0.195777         2.367993        -1.435058
 H        -0.617354         0.875795        -1.986769
 H        -3.975798         3.302145        -1.375452
 H        -2.868131         3.249476        -2.783218
 H        -3.805679         1.285490        -0.090259
 H        -2.388797        -0.651791         0.494419
 H        -1.526116        -0.609815        -1.072200
 H        -0.714099         3.351570         0.569487
 H        -2.188349         2.607901         1.365358
