19
Iteration:  1549charge 0 multiplicity 1
 O         0.242369         0.340525         0.920084
 C        -0.777805         0.956196         0.115218
 C        -0.612177         1.705094        -1.332253
 C        -1.968313         2.333385        -0.879733
 C        -3.018230         2.661698        -1.972466
 O        -3.418194         1.232972        -1.968690
 C        -2.867403         1.171408        -0.627593
 C        -1.929967         0.036258        -0.177172
 C        -1.335773         2.528545         0.496500
 H         1.149262         0.697777         0.568145
 H         0.161037         2.461387        -1.186556
 H        -0.548629         1.022995        -2.207339
 H        -3.807113         3.297740        -1.500435
 H        -2.649275         2.975617        -2.943898
 H        -3.553886         1.706366         0.053141
 H        -2.277642        -0.483595         0.629363
 H        -1.710834        -0.717217        -0.875368
 H        -0.326748         3.105589         0.658674
 H        -2.128859         2.631837         1.339765
