19
Iteration:  3183charge 0 multiplicity 1
 O         0.431061         0.408109         0.802376
 C        -0.772990         1.012426         0.165641
 C        -0.733570         1.565016        -1.272695
 C        -1.976581         2.295052        -0.857749
 C        -2.947783         2.694645        -2.032108
 O        -3.447360         1.370149        -2.091301
 C        -2.909213         1.133370        -0.692777
 C        -1.944800         0.058529         0.036260
 C        -1.384719         2.402674         0.578436
 H         1.191203         0.991497         0.726189
 H         0.161739         2.159418        -1.490901
 H        -0.868339         0.901431        -2.166143
 H        -3.634632         3.413539        -1.610291
 H        -2.512603         2.888924        -2.959191
 H        -3.842332         1.283993        -0.019467
 H        -2.376690        -0.283075         0.951653
 H        -1.789304        -0.821567        -0.676953
 H        -0.543395         3.195673         0.604851
 H        -2.104104         2.469527         1.385714
