19
Iteration:  3802charge 0 multiplicity 1
 O         0.272485         0.527273         0.900478
 C        -0.738071         1.035871         0.082775
 C        -0.695780         1.592221        -1.431171
 C        -1.913300         2.362745        -0.885803
 C        -3.063250         2.597975        -1.925638
 O        -3.356703         1.246151        -2.049468
 C        -2.826157         1.168439        -0.660115
 C        -1.987961         0.144963         0.022849
 C        -1.240562         2.415219         0.513145
 H         0.133180        -0.394240         1.012055
 H         0.257399         2.013821        -1.606674
 H        -0.834946         0.877090        -2.291669
 H        -3.926619         3.033358        -1.470894
 H        -3.038199         3.009394        -2.972263
 H        -3.659693         1.440276        -0.071759
 H        -2.594340        -0.223970         1.007240
 H        -1.771351        -0.820450        -0.578702
 H        -0.311470         3.077064         0.626857
 H        -1.932060         2.408154         1.360105
