19
Iteration:  3628charge 0 multiplicity 1
 O         0.419752         0.510551         0.789913
 C        -0.776289         0.930307         0.120329
 C        -0.667106         1.548949        -1.303428
 C        -1.973987         2.247166        -0.948921
 C        -2.859433         2.697969        -2.074719
 O        -3.485202         1.309963        -1.959999
 C        -2.964578         1.169225        -0.595668
 C        -2.001670         0.049651         0.076319
 C        -1.368584         2.412044         0.476669
 H         0.873954         1.340512         1.096504
 H         0.120198         2.279033        -1.306610
 H        -0.818273         0.811989        -2.165596
 H        -3.491642         3.620710        -1.802710
 H        -2.254108         2.731392        -3.065872
 H        -3.691101         1.561773         0.137012
 H        -2.456855        -0.343446         0.918632
 H        -1.940483        -0.725298        -0.721492
 H        -0.481019         3.078071         0.599170
 H        -2.090199         2.441735         1.248531
