19
Iteration:   279
 O         0.391916         0.428229         0.676496
 C        -0.711185         1.047025         0.214304
 C        -0.629711         1.710008        -1.164071
 C        -2.098862         2.317360        -0.750175
 C        -3.092770         2.754895        -1.884719
 O        -3.308420         1.331943        -2.191090
 C        -2.907065         1.009016        -0.783651
 C        -1.820579         0.007588        -0.104799
 C        -1.449131         2.402893         0.623381
 H        -0.053112        -0.222053         1.176845
 H         0.278709         2.445667        -1.236776
 H        -0.702429         1.358368        -2.233206
 H        -3.994421         3.283577        -1.485389
 H        -2.791887         3.316142        -2.829585
 H        -3.775353         0.823235        -0.124047
 H        -2.107744        -0.522162         0.834937
 H        -1.403884        -0.801763        -0.666516
 H        -0.768372         3.298217         0.686739
 H        -2.111630         2.469642         1.520334
