19
Iteration:  3316
 O         0.316590         0.446140         0.714360
 C        -0.822105         1.002776         0.100592
 C        -0.694476         1.616602        -1.276132
 C        -1.976265         2.352815        -0.814698
 C        -3.006707         2.710601        -1.979010
 O        -3.284958         1.229956        -2.080926
 C        -2.903253         1.156635        -0.659856
 C        -1.972824         0.029873         0.002469
 C        -1.355347         2.400258         0.608681
 H         0.938089         1.136326         0.908217
 H         0.186647         2.265588        -1.305055
 H        -0.820183         0.970820        -2.161488
 H        -3.988151         3.360313        -1.695889
 H        -2.559449         3.183415        -2.837212
 H        -3.877135         1.234228        -0.084370
 H        -2.289772        -0.429648         0.911831
 H        -1.677403        -0.834647        -0.654914
 H        -0.439518         3.076826         0.672442
 H        -1.821695         2.572665         1.544657
