19
Iteration:  2802charge 0 multiplicity 1
 O         0.556637         0.514136         0.712329
 C        -0.757593         0.968098         0.121227
 C        -0.748983         1.558104        -1.321370
 C        -2.007530         2.305651        -0.844652
 C        -2.881385         2.659521        -2.052373
 O        -3.463544         1.345080        -2.048820
 C        -2.985739         1.175052        -0.593444
 C        -1.998536         0.071530         0.013081
 C        -1.361714         2.416972         0.576901
 H         0.289085        -0.255011         1.314102
 H         0.123423         2.166365        -1.415180
 H        -0.873399         0.733695        -1.980649
 H        -3.685960         3.417757        -1.981425
 H        -2.465544         2.782366        -3.046225
 H        -3.706945         1.456090         0.115204
 H        -2.340895        -0.093235         1.140397
 H        -1.841266        -0.856905        -0.656353
 H        -0.632225         3.182905         0.912285
 H        -2.065298         2.461089         1.403855
