19
Iteration:  2631charge 0 multiplicity 1
 O         0.367165         0.380002         0.801986
 C        -0.711959         1.029533         0.051878
 C        -0.646208         1.614536        -1.404499
 C        -1.987735         2.291238        -0.792412
 C        -3.018920         2.736022        -1.886613
 O        -3.325624         1.180041        -2.100080
 C        -3.013811         1.169298        -0.602383
 C        -2.002567         0.092626         0.062467
 C        -1.247359         2.552032         0.443548
 H        -0.085102        -0.348473         1.236198
 H         0.023262         2.511544        -1.758637
 H        -0.747695         0.879004        -2.261246
 H        -3.852311         3.160798        -1.269493
 H        -2.773059         3.147312        -2.926926
 H        -3.760208         1.544883         0.062623
 H        -2.326186        -0.055373         1.057495
 H        -1.858046        -0.925449        -0.323805
 H        -0.496883         3.378141         0.414150
 H        -1.850081         2.515043         1.292458
