19
Iteration:  2759
 O         0.354816         0.419651         0.773886
 C        -0.682853         0.963414         0.119495
 C        -0.658612         1.524963        -1.337725
 C        -1.898740         2.335863        -0.894374
 C        -3.057127         2.694498        -1.855098
 O        -3.349789         1.291655        -2.020085
 C        -2.938008         1.141745        -0.628272
 C        -2.032810         0.004866        -0.024203
 C        -1.319557         2.567689         0.378984
 H         0.230074         0.483068         1.742021
 H         0.103344         2.286676        -1.436992
 H        -0.813903         0.966734        -2.219137
 H        -3.813303         3.233692        -1.322516
 H        -2.759276         3.320486        -2.682993
 H        -3.864638         1.219725         0.026713
 H        -2.463598        -0.290243         1.044038
 H        -1.902703        -0.891699        -0.764990
 H        -0.328409         3.145393         0.540964
 H        -2.021071         2.938341         1.120621
