19
Iteration:  4193charge 0 multiplicity 1
 O         0.327110         0.508282         0.893215
 C        -0.727576         0.986826         0.167855
 C        -0.637169         1.562489        -1.330172
 C        -1.962084         2.266921        -0.898937
 C        -3.014510         2.752784        -1.867653
 O        -3.394577         1.313185        -2.156808
 C        -2.873462         1.069543        -0.703831
 C        -1.951712         0.075412        -0.031906
 C        -1.425088         2.410974         0.540477
 H         1.113548         0.719754         0.282627
 H         0.210665         2.223042        -1.598758
 H        -0.625905         0.812597        -2.188604
 H        -3.910626         3.218062        -1.340072
 H        -2.789453         3.458412        -2.671135
 H        -3.781299         1.185204         0.001063
 H        -2.302388        -0.180462         1.017158
 H        -1.722585        -0.951807        -0.550268
 H        -0.577830         3.090396         0.607567
 H        -2.050505         2.376362         1.369758
