19
Iteration:  4968charge 0 multiplicity 1
 O         0.318277         0.474033         0.855765
 C        -0.732226         1.005924         0.061788
 C        -0.629476         1.630305        -1.312797
 C        -1.952663         2.325794        -0.813172
 C        -3.003112         2.702655        -1.876856
 O        -3.320102         1.279396        -2.087684
 C        -2.940860         1.078364        -0.713195
 C        -1.981763        -0.041862        -0.055918
 C        -1.441699         2.451420         0.556343
 H         1.060865         1.122761         0.811865
 H         0.052002         2.491506        -1.319921
 H        -0.505048         1.099278        -2.235475
 H        -3.701980         3.367590        -1.402585
 H        -2.637040         3.114562        -2.842960
 H        -3.845717         1.517442        -0.281961
 H        -2.389976        -0.781012         0.844121
 H        -1.725820        -0.755116        -0.860876
 H        -0.571872         3.170074         0.706853
 H        -2.138943         2.354955         1.360668
