19
Iteration:    48charge 0 multiplicity 1
 O         0.181350         0.457446         0.848705
 C        -0.731297         1.041648         0.080250
 C        -0.563180         1.720510        -1.269727
 C        -1.956811         2.277181        -0.881895
 C        -3.044998         2.778591        -1.830458
 O        -3.494255         1.237706        -1.994149
 C        -2.799624         1.044415        -0.709366
 C        -1.828943         0.002835        -0.204514
 C        -1.394432         2.369316         0.525685
 H         1.015838         0.841776         0.679610
 H         0.237069         2.483523        -1.324407
 H        -0.367631         1.111052        -2.193644
 H        -3.830564         3.290851        -1.335390
 H        -2.745646         3.179213        -2.843859
 H        -3.625429         1.097476         0.046445
 H        -2.255774        -0.377465         0.706754
 H        -1.475560        -0.784256        -0.864481
 H        -0.640662         3.273825         0.761768
 H        -2.097040         2.535231         1.397495
