19
Iteration:  1711charge 0 multiplicity 1
 O         0.446147         0.532665         0.831183
 C        -0.796412         0.975358         0.164555
 C        -0.681730         1.587575        -1.258012
 C        -1.921906         2.344965        -0.920894
 C        -2.898422         2.693821        -2.052135
 O        -3.546491         1.329742        -1.924535
 C        -2.881066         1.162982        -0.577451
 C        -1.976430        -0.056999        -0.149166
 C        -1.361180         2.470725         0.488556
 H         0.341330        -0.392834         0.974110
 H         0.273030         2.183040        -1.216637
 H        -0.779347         0.866052        -2.165554
 H        -3.632344         3.505815        -1.911876
 H        -2.508069         2.713402        -3.091780
 H        -3.589053         1.537876         0.281641
 H        -2.358530        -0.649784         0.856437
 H        -1.748996        -0.736506        -1.006446
 H        -0.497822         3.067846         0.526352
 H        -2.301906         2.569540         1.130217
