19
Iteration:  1572
 O         0.283558         0.353792         0.715341
 C        -0.787446         1.082249         0.150974
 C        -0.548353         1.672858        -1.260202
 C        -1.975837         2.328541        -0.844445
 C        -2.956513         2.616390        -2.051265
 O        -3.440612         1.272400        -1.991152
 C        -2.927822         1.118639        -0.607683
 C        -1.980473         0.107718        -0.110117
 C        -1.340508         2.448413         0.571858
 H         0.841052         0.919983         1.239696
 H         0.202981         2.442900        -1.420723
 H        -0.627365         0.791750        -1.919970
 H        -3.688108         3.343606        -1.627339
 H        -2.536573         2.816158        -3.043706
 H        -3.671422         1.414529         0.128359
 H        -2.311209        -0.408225         0.764965
 H        -1.706538        -0.709594        -0.766111
 H        -0.334651         3.111867         0.677978
 H        -2.072026         2.350907         1.408458
