19
Iteration:  2896charge 0 multiplicity 1
 O         0.336776         0.595324         0.768868
 C        -0.757551         1.049529         0.129752
 C        -0.665506         1.450768        -1.316972
 C        -1.957528         2.220072        -0.870126
 C        -2.986057         2.800647        -1.819232
 O        -3.465948         1.342056        -2.075741
 C        -2.904724         1.050461        -0.691558
 C        -1.973494        -0.031440        -0.069596
 C        -1.253684         2.393815         0.444209
 H         0.210406         0.897674         1.707755
 H         0.183769         2.200301        -1.377273
 H        -0.624593         0.600087        -2.086164
 H        -3.684484         3.491821        -1.374976
 H        -2.634670         3.304928        -2.712561
 H        -3.741489         1.452601        -0.058992
 H        -2.373340        -0.234053         0.844514
 H        -1.642395        -0.852655        -0.599642
 H        -0.412843         2.980826         0.675211
 H        -1.846152         2.547202         1.424905
