19
Iteration:  3951charge 0 multiplicity 1
 O         0.317647         0.436565         0.845751
 C        -0.722967         1.019925         0.100929
 C        -0.675966         1.595901        -1.399452
 C        -1.991364         2.248982        -0.867036
 C        -3.023784         2.695857        -1.919626
 O        -3.373314         1.194043        -2.001954
 C        -2.927897         1.142447        -0.698435
 C        -1.974164         0.137912         0.004114
 C        -1.258848         2.448153         0.458013
 H         0.371413         0.979168         1.606415
 H         0.151130         2.343431        -1.428106
 H        -0.739851         0.903695        -2.298193
 H        -3.799356         3.361656        -1.561145
 H        -2.506531         2.994935        -2.784146
 H        -3.800047         1.404352        -0.100340
 H        -2.406103        -0.093460         0.984898
 H        -1.724034        -0.678045        -0.712382
 H        -0.476818         3.235098         0.513192
 H        -1.891410         2.573327         1.355876
