19
Iteration:  3018charge 0 multiplicity 1
 O         0.430216         0.610790         0.743551
 C        -0.836878         0.937207         0.123953
 C        -0.659778         1.527718        -1.307212
 C        -1.893949         2.217766        -0.891964
 C        -2.968679         2.818234        -1.873835
 O        -3.428474         1.367086        -2.069651
 C        -2.921929         1.068264        -0.744272
 C        -2.019040        -0.022530         0.053415
 C        -1.340625         2.389277         0.503194
 H         0.140375         0.395770         1.617139
 H         0.260280         2.175037        -1.413673
 H        -0.776108         0.994991        -2.310942
 H        -3.774173         3.442943        -1.509683
 H        -2.592216         3.103885        -2.832860
 H        -3.675920         1.357665        -0.095782
 H        -2.511420        -0.327804         0.975324
 H        -1.631031        -0.916445        -0.370020
 H        -0.374060         2.922479         0.558321
 H        -2.013492         2.572575         1.453303
