19
Iteration:  2288
 O         0.333917         0.388649         0.634178
 C        -0.728348         1.124720         0.145988
 C        -0.659428         1.508205        -1.260918
 C        -1.944003         2.292287        -0.872512
 C        -3.022202         2.630789        -1.987395
 O        -3.402246         1.241271        -2.022400
 C        -2.982529         1.150629        -0.605145
 C        -1.995308         0.147582         0.021848
 C        -1.216487         2.557497         0.529201
 H         0.126755        -0.174875         1.409105
 H         0.223835         2.237396        -1.306836
 H        -0.738477         0.730990        -2.138706
 H        -3.656094         3.341898        -1.417696
 H        -2.781256         3.109748        -3.070936
 H        -3.833580         1.399045        -0.032376
 H        -2.233880        -0.330856         1.022493
 H        -1.688811        -0.606545        -0.699410
 H        -0.525629         3.339716         0.563013
 H        -1.831479         2.528455         1.444141
