19
Iteration:  2245charge 0 multiplicity 1
 O         0.382597         0.469998         0.758877
 C        -0.705346         0.982292         0.056301
 C        -0.675537         1.557920        -1.386632
 C        -1.960252         2.251176        -0.901589
 C        -2.965766         2.667656        -1.883158
 O        -3.394468         1.293862        -2.041320
 C        -2.983728         1.144634        -0.543792
 C        -2.035676         0.119495         0.006405
 C        -1.231018         2.474608         0.486400
 H        -0.058598         0.428182         1.671241
 H         0.161296         2.321445        -1.592994
 H        -0.701920         0.732921        -2.209935
 H        -3.833536         3.231545        -1.628093
 H        -2.719916         3.166296        -2.894674
 H        -3.782501         1.419742         0.078247
 H        -2.401716        -0.240558         1.022475
 H        -1.879698        -0.744311        -0.668560
 H        -0.555892         3.228481         0.638460
 H        -1.954852         2.454342         1.311634
