19
Iteration:   741
 O         0.308464         0.475640         0.759792
 C        -0.772115         1.024847         0.061860
 C        -0.606084         1.647545        -1.294073
 C        -1.931275         2.412417        -0.868972
 C        -3.069677         2.606392        -1.869015
 O        -3.392636         1.273640        -2.005772
 C        -2.802057         1.145718        -0.629084
 C        -1.976816        -0.015588        -0.185055
 C        -1.348190         2.405597         0.544429
 H         0.082936         0.608230         1.721877
 H         0.326860         2.385971        -1.397396
 H        -0.553509         0.831677        -2.103409
 H        -3.998561         3.246502        -1.533134
 H        -2.599695         3.140087        -2.747903
 H        -3.659437         1.278226         0.062367
 H        -2.337877        -0.484068         0.750843
 H        -1.818561        -0.810953        -0.865735
 H        -0.431071         3.081842         0.723412
 H        -2.199774         2.604699         1.418048
