19
Iteration:  1254charge 0 multiplicity 1
 O         0.518632         0.656739         0.735580
 C        -0.776078         0.948974         0.153961
 C        -0.620007         1.519026        -1.272643
 C        -2.002495         2.243256        -0.837482
 C        -2.861313         2.806959        -1.899236
 O        -3.459021         1.332730        -2.092863
 C        -3.033456         1.069545        -0.718018
 C        -2.007981        -0.045573        -0.091256
 C        -1.421057         2.393060         0.577485
 H         0.357973         0.301872         1.651027
 H         0.225065         2.159918        -1.470436
 H        -0.673109         0.724508        -1.992482
 H        -3.672019         3.477839        -1.526196
 H        -2.405687         3.274948        -2.766137
 H        -3.975108         1.173324        -0.174239
 H        -2.431244        -0.429470         0.929445
 H        -1.549137        -0.826903        -0.776868
 H        -0.677932         3.123228         0.648221
 H        -2.093897         2.566030         1.453552
