19
Iteration:  2923charge 0 multiplicity 1
 O         0.545528         0.541091         0.724602
 C        -0.696540         0.959156         0.185366
 C        -0.704860         1.510934        -1.246151
 C        -1.960084         2.233891        -0.855343
 C        -2.949938         2.698342        -1.998926
 O        -3.480138         1.370203        -2.025806
 C        -2.932987         1.146238        -0.649290
 C        -2.027824         0.010948        -0.081792
 C        -1.435179         2.449658         0.522096
 H         0.356690         0.357022         1.706352
 H         0.178811         2.129587        -1.390900
 H        -0.699688         0.788869        -2.074932
 H        -3.644041         3.573496        -1.670234
 H        -2.566177         3.031015        -3.013644
 H        -3.729449         1.721522        -0.005465
 H        -2.447731        -0.621498         0.852281
 H        -1.837687        -0.822913        -0.912407
 H        -0.571206         3.157158         0.824847
 H        -2.204783         2.591096         1.208933
