19
Iteration:  3928charge 0 multiplicity 1
 O         0.310248         0.361301         0.838295
 C        -0.697161         1.083839         0.176389
 C        -0.641918         1.551680        -1.310037
 C        -1.955522         2.310552        -0.997413
 C        -3.102956         2.645196        -1.953126
 O        -3.433326         1.301859        -2.059662
 C        -2.846588         1.101404        -0.628073
 C        -1.912034         0.016829        -0.003310
 C        -1.309483         2.607926         0.431181
 H         0.152601         0.545986         1.824593
 H         0.231021         2.250329        -1.628002
 H        -0.777602         0.691607        -2.012452
 H        -3.729403         3.146522        -1.211875
 H        -2.969534         3.208897        -2.838445
 H        -3.724393         1.242839        -0.071592
 H        -2.226556        -0.192347         1.051646
 H        -1.643976        -0.803162        -0.784390
 H        -0.421170         3.201112         0.523110
 H        -1.945336         2.879059         1.315708
