19
Iteration:  2197charge 0 multiplicity 1
 O         0.533903         0.564707         0.707118
 C        -0.765468         0.978592         0.189399
 C        -0.563516         1.504219        -1.266840
 C        -1.965945         2.232216        -0.935184
 C        -2.877188         2.643031        -2.014720
 O        -3.593539         1.390198        -1.923988
 C        -2.937500         1.160916        -0.584720
 C        -2.128939        -0.082612        -0.095979
 C        -1.386309         2.519944         0.508881
 H         0.471883         0.222121         1.573860
 H         0.146970         2.338059        -1.433717
 H        -0.567895         0.793096        -2.121367
 H        -3.456329         3.606282        -1.894126
 H        -2.302342         2.781668        -2.972653
 H        -3.709109         1.377888         0.121477
 H        -2.402779        -0.618963         0.802871
 H        -1.865415        -0.672701        -0.965904
 H        -0.510608         3.336066         0.540920
 H        -1.968669         2.679477         1.429971
