19
Iteration:   845
 O         0.301002         0.471277         0.900316
 C        -0.733348         1.017190         0.132105
 C        -0.675625         1.645795        -1.315517
 C        -1.972054         2.296777        -0.834500
 C        -3.081905         2.681241        -1.894275
 O        -3.368974         1.282207        -2.076304
 C        -2.909804         1.113984        -0.652580
 C        -1.956779         0.073282        -0.140992
 C        -1.280004         2.417179         0.485060
 H         0.960407         0.096364         0.372774
 H         0.131789         2.360520        -1.390475
 H        -0.690601         0.905852        -2.164280
 H        -3.920513         3.160641        -1.383492
 H        -2.889159         3.212231        -2.837158
 H        -3.637880         1.388854         0.120918
 H        -2.262979        -0.310520         0.860031
 H        -1.712302        -0.877589        -0.758041
 H        -0.315779         3.076951         0.478509
 H        -1.877823         2.581472         1.390246
