19
Iteration:  1255
 O         0.519644         0.652361         0.729616
 C        -0.783568         0.959228         0.160011
 C        -0.627087         1.517743        -1.266536
 C        -2.004550         2.252648        -0.828428
 C        -2.860246         2.806048        -1.903199
 O        -3.460249         1.331104        -2.093550
 C        -3.028896         1.067478        -0.717774
 C        -2.000136        -0.049440        -0.092513
 C        -1.419174         2.394158         0.576463
 H         0.341074         0.304277         1.677863
 H         0.225499         2.139583        -1.472986
 H        -0.661776         0.717731        -2.000355
 H        -3.656169         3.494350        -1.543122
 H        -2.403871         3.274327        -2.764427
 H        -4.004092         1.164878        -0.164911
 H        -2.402540        -0.402998         0.862796
 H        -1.563821        -0.876645        -0.759405
 H        -0.645082         3.138295         0.635413
 H        -2.105740         2.536483         1.429317
