19
Iteration:  3016
 O         0.416023         0.607281         0.734025
 C        -0.832349         0.943163         0.131405
 C        -0.653808         1.535370        -1.316683
 C        -1.902297         2.217686        -0.887967
 C        -2.967703         2.809939        -1.874954
 O        -3.421683         1.355360        -2.070215
 C        -2.913970         1.068545        -0.748606
 C        -2.018899        -0.017214         0.054430
 C        -1.330934         2.391221         0.504163
 H         0.140850         0.319799         1.593777
 H         0.267201         2.132010        -1.360972
 H        -0.828489         0.993067        -2.262298
 H        -3.757110         3.449167        -1.496416
 H        -2.638387         3.198398        -2.857511
 H        -3.703713         1.372773        -0.054404
 H        -2.571610        -0.333879         1.056463
 H        -1.585014        -0.895387        -0.427131
 H        -0.417925         2.937715         0.607555
 H        -1.985346         2.637054         1.449991
