19
Iteration:  1821charge 0 multiplicity 1
 O         0.388357         0.445875         0.812499
 C        -0.721718         0.967266         0.090190
 C        -0.686648         1.627504        -1.255488
 C        -1.970978         2.372205        -0.859565
 C        -2.884567         2.619730        -2.101314
 O        -3.534550         1.344810        -1.946747
 C        -2.892785         1.161310        -0.616866
 C        -2.016270         0.015949        -0.015395
 C        -1.328423         2.448738         0.535678
 H         1.035379        -0.091578         0.243061
 H         0.073622         2.441410        -1.415540
 H        -0.743218         1.032336        -2.227590
 H        -3.827055         3.185391        -2.058070
 H        -2.331915         2.635991        -3.053179
 H        -3.629241         1.393717         0.091952
 H        -2.305677        -0.113471         1.150339
 H        -1.856024        -0.727929        -0.800167
 H        -0.568420         3.118248         0.736645
 H        -2.109130         2.520371         1.383575
