19
Iteration:  3809charge 0 multiplicity 1
 O         0.246414         0.537044         0.856417
 C        -0.784949         0.970459         0.087235
 C        -0.628520         1.576228        -1.459544
 C        -1.876562         2.353352        -0.895507
 C        -3.134742         2.636069        -1.964482
 O        -3.308940         1.214138        -2.031187
 C        -2.844579         1.169404        -0.645963
 C        -1.994619         0.130784         0.016541
 C        -1.240697         2.459911         0.546503
 H         0.038072        -0.381829         0.984089
 H         0.286020         2.161211        -1.587756
 H        -0.734600         0.821418        -2.206380
 H        -4.000520         3.061500        -1.308602
 H        -2.973055         3.098091        -2.910365
 H        -3.656555         1.404074         0.089984
 H        -2.419909         0.006604         0.956366
 H        -1.794836        -0.761153        -0.461624
 H        -0.444847         3.152173         0.745966
 H        -1.850473         2.464375         1.494303
