19
Iteration:  4108
 O         0.458017         0.518147         0.724092
 C        -0.716198         0.936284         0.141635
 C        -0.642639         1.614755        -1.212115
 C        -1.924749         2.319699        -0.850279
 C        -2.932825         2.694149        -2.064860
 O        -3.581558         1.307301        -2.057900
 C        -2.955525         1.124805        -0.650750
 C        -1.944698         0.025620        -0.080045
 C        -1.452774         2.398032         0.594855
 H         0.790434         0.998026         1.470477
 H         0.241235         2.270552        -1.159588
 H        -0.533946         0.901349        -2.063248
 H        -3.684463         3.402198        -1.944529
 H        -2.216375         2.732414        -2.910726
 H        -3.664785         1.399953         0.050555
 H        -2.187088        -0.362565         0.911849
 H        -1.645846        -0.823308        -0.605982
 H        -0.788422         3.305232         0.743846
 H        -2.121510         2.202805         1.520157
