19
Iteration:  2854
 O         0.377243         0.362738         0.772630
 C        -0.746917         1.006656         0.134941
 C        -0.646940         1.626041        -1.278511
 C        -1.952454         2.315520        -0.926651
 C        -3.045485         2.678657        -1.990419
 O        -3.440258         1.223645        -1.968929
 C        -2.868945         1.193784        -0.680791
 C        -1.989335         0.118877        -0.066195
 C        -1.264144         2.493246         0.547809
 H         0.151828         0.223278         1.759339
 H         0.208742         2.312023        -1.581273
 H        -0.678689         0.805397        -2.114342
 H        -3.998679         3.240647        -1.676659
 H        -2.760381         3.041189        -2.972114
 H        -3.715299         1.385525         0.119541
 H        -2.348415        -0.441057         0.755383
 H        -1.734377        -0.592747        -0.821336
 H        -0.609619         3.301506         0.580552
 H        -1.944233         2.739200         1.428473
