19
Iteration:  1785charge 0 multiplicity 1
 O         0.277742         0.478422         0.747769
 C        -0.772323         1.062562         0.119879
 C        -0.679404         1.543628        -1.292108
 C        -1.926419         2.349005        -0.894405
 C        -3.013894         2.640038        -1.890428
 O        -3.342464         1.213575        -2.069629
 C        -2.925773         1.164531        -0.633171
 C        -1.989542         0.123617        -0.006836
 C        -1.223114         2.508411         0.537413
 H         0.393325        -0.512420         0.640192
 H         0.090063         2.248574        -1.530277
 H        -0.863071         0.781925        -2.018516
 H        -3.898719         3.194619        -1.486424
 H        -2.738452         3.240672        -2.801418
 H        -3.832663         1.431942        -0.022204
 H        -2.381982        -0.455845         0.856207
 H        -1.775657        -0.778616        -0.590179
 H        -0.336052         3.160004         0.546522
 H        -1.865204         2.516104         1.491582
