19
Iteration:  2292
 O         0.370437         0.402350         0.635586
 C        -0.696139         1.104256         0.135223
 C        -0.655743         1.497251        -1.289999
 C        -1.955519         2.284216        -0.840780
 C        -2.936193         2.653614        -1.983401
 O        -3.433681         1.229334        -2.018157
 C        -3.006621         1.149722        -0.611112
 C        -2.008747         0.168185         0.027368
 C        -1.283580         2.533789         0.527479
 H         0.053049        -0.153221         1.394605
 H         0.157678         2.237197        -1.348194
 H        -0.630963         0.834868        -2.134926
 H        -3.656912         3.425936        -1.545932
 H        -2.897415         2.997313        -2.988622
 H        -3.837388         1.497117         0.039953
 H        -2.234286        -0.223804         1.009955
 H        -1.683879        -0.674112        -0.708661
 H        -0.496766         3.320578         0.580935
 H        -1.861110         2.531498         1.458925
