19
Iteration:   188
 O         0.426126         0.473865         0.844070
 C        -0.720495         1.052798         0.174554
 C        -0.658899         1.687390        -1.182348
 C        -2.042508         2.220916        -0.796971
 C        -2.972876         2.754615        -1.844221
 O        -3.434430         1.376610        -2.059110
 C        -2.875909         0.980404        -0.734353
 C        -1.838906        -0.080096        -0.293262
 C        -1.564511         2.466056         0.593789
 H         1.104784         0.214615         0.203209
 H        -0.060847         2.584257        -1.374993
 H        -0.535924         1.151487        -2.160144
 H        -3.764705         3.455886        -1.538535
 H        -2.376954         3.172102        -2.757889
 H        -3.771098         1.019289        -0.077664
 H        -2.227325        -0.654439         0.533039
 H        -1.511174        -0.742836        -1.104547
 H        -0.848855         3.279113         0.754040
 H        -2.400273         2.522424         1.189314
