19
Iteration:   771charge 0 multiplicity 1
 O         0.514428         0.502345         0.769214
 C        -0.696095         1.042381         0.157054
 C        -0.676016         1.643016        -1.249012
 C        -2.023490         2.258618        -0.861137
 C        -2.929553         2.654175        -1.961159
 O        -3.500208         1.337608        -2.084306
 C        -2.958278         1.140869        -0.669571
 C        -1.949650         0.052142        -0.075195
 C        -1.408799         2.378587         0.565002
 H         0.240313        -0.309998         1.295803
 H        -0.032454         2.458182        -1.341457
 H        -0.681802         0.950839        -2.034565
 H        -3.682247         3.372260        -1.562647
 H        -2.415036         3.048762        -2.883595
 H        -3.740590         1.241321         0.083177
 H        -2.278084        -0.508444         0.774364
 H        -1.746945        -0.695172        -0.834706
 H        -0.721854         3.115169         0.507072
 H        -2.075182         2.450871         1.384089
