19
Iteration:   960
 O         0.383857         0.368570         0.717890
 C        -0.714825         1.046452         0.125851
 C        -0.642960         1.579542        -1.302366
 C        -1.971365         2.295395        -0.852986
 C        -3.058602         2.659547        -1.892584
 O        -3.362298         1.324851        -2.081421
 C        -2.888253         1.068992        -0.666741
 C        -2.017708         0.121021        -0.018557
 C        -1.335242         2.515189         0.543887
 H         0.477738         0.715619         1.574981
 H         0.174122         2.338101        -1.481084
 H        -0.553953         0.814324        -2.086600
 H        -3.949108         3.098648        -1.504368
 H        -2.965198         3.092394        -2.868196
 H        -3.896247         1.224230        -0.129210
 H        -2.527333        -0.294257         0.853694
 H        -1.699814        -0.831883        -0.483611
 H        -0.473502         3.112818         0.520492
 H        -1.991090         2.793330         1.396608
