19
Iteration:  2789charge 0 multiplicity 1
 O         0.429914         0.542788         0.693989
 C        -0.702825         1.052875         0.150649
 C        -0.697253         1.464650        -1.285484
 C        -1.973150         2.293296        -0.881288
 C        -2.972077         2.732851        -2.040197
 O        -3.451776         1.298253        -2.045000
 C        -2.986947         1.151301        -0.651932
 C        -2.005035         0.096371         0.054547
 C        -1.254180         2.392163         0.610590
 H         0.289933        -0.086413         1.392924
 H         0.082404         2.175194        -1.680385
 H        -0.751168         0.833147        -2.213615
 H        -3.790590         3.469882        -1.689617
 H        -2.399213         3.123443        -2.861678
 H        -3.891775         1.227042        -0.125036
 H        -2.439224        -0.425631         0.991973
 H        -1.768990        -0.793038        -0.547498
 H        -0.466745         3.050710         0.651019
 H        -2.026528         2.368717         1.433024
