19
Iteration:  4075
 O         0.380828         0.551520         0.842705
 C        -0.748861         1.012210         0.132830
 C        -0.612668         1.555387        -1.302866
 C        -1.965774         2.237145        -0.898691
 C        -2.979574         2.723406        -1.855215
 O        -3.452359         1.298782        -2.028022
 C        -2.947298         1.065958        -0.670554
 C        -1.905741         0.003401        -0.146025
 C        -1.369776         2.490684         0.462295
 H         0.074482         0.213833         1.677956
 H         0.143602         2.309264        -1.514554
 H        -0.638972         0.848076        -2.158515
 H        -3.808401         3.341105        -1.538304
 H        -2.626986         3.207521        -2.793500
 H        -3.720083         1.280723         0.036708
 H        -2.251132        -0.359047         0.816880
 H        -1.629626        -0.809405        -0.753103
 H        -0.633907         3.355942         0.375658
 H        -2.018545         2.543836         1.373396
