19
Iteration:  1567charge 0 multiplicity 1
 O         0.224593         0.358061         0.733661
 C        -0.785898         1.059505         0.130545
 C        -0.552483         1.668858        -1.235470
 C        -1.920954         2.348901        -0.874957
 C        -2.979916         2.642911        -2.025592
 O        -3.447159         1.226707        -1.976878
 C        -2.901831         1.142772        -0.633364
 C        -1.993541         0.084398        -0.115040
 C        -1.299961         2.479529         0.601564
 H         0.961092         0.987572         1.090043
 H         0.288538         2.401686        -1.374415
 H        -0.536324         0.938678        -2.121360
 H        -3.789698         3.307587        -1.707931
 H        -2.567667         2.840253        -3.023871
 H        -3.661774         1.163198         0.225398
 H        -2.321272        -0.459200         0.824240
 H        -1.677015        -0.607236        -0.930877
 H        -0.528188         3.125162         0.530655
 H        -2.013165         2.413303         1.429414
