19
Iteration:  3237
 O         0.210288         0.328333         0.946305
 C        -0.757790         1.030881         0.159020
 C        -0.602343         1.658366        -1.349186
 C        -1.925619         2.310165        -0.938854
 C        -3.061370         2.753230        -1.974008
 O        -3.456158         1.171065        -1.935682
 C        -2.821459         1.153877        -0.652036
 C        -1.905366         0.093359        -0.203248
 C        -1.281813         2.500680         0.530112
 H         1.010298         0.825690         0.983859
 H         0.117469         2.397852        -1.557034
 H        -0.723843         0.911580        -2.134132
 H        -3.925989         3.452432        -1.568524
 H        -2.787766         3.075664        -2.976175
 H        -3.597057         1.334541         0.183631
 H        -2.274332        -0.533478         0.592897
 H        -1.697437        -0.536850        -1.151655
 H        -0.460365         3.200563         0.632461
 H        -2.075798         2.460060         1.194154
