19
Iteration:  3223
 O         0.134243         0.303342         0.873044
 C        -0.690837         1.072160         0.068303
 C        -0.535302         1.630498        -1.347493
 C        -1.924763         2.353600        -0.909776
 C        -3.021771         2.553498        -1.922098
 O        -3.404421         1.215365        -1.955581
 C        -2.945909         1.214723        -0.564294
 C        -1.912734         0.152710        -0.210592
 C        -1.345646         2.483710         0.499385
 H         0.998526         0.788240         1.078871
 H         0.220083         2.416818        -1.282050
 H        -0.382076         0.983798        -2.176499
 H        -3.905698         3.081342        -1.336359
 H        -2.857344         3.082940        -2.964800
 H        -3.687430         1.589792         0.106626
 H        -2.105792        -0.592157         0.684265
 H        -1.579084        -0.486520        -1.006922
 H        -0.610837         3.226524         0.606171
 H        -1.866670         2.663385         1.472803
