19
Iteration:  3462charge 0 multiplicity 1
 O         0.348081         0.353507         0.724392
 C        -0.750606         0.996512         0.168258
 C        -0.567982         1.663172        -1.243742
 C        -1.938341         2.333352        -0.992304
 C        -3.039471         2.688766        -1.942664
 O        -3.335490         1.184148        -1.969057
 C        -2.956857         1.154923        -0.683663
 C        -2.021437         0.089894        -0.078888
 C        -1.328082         2.499143         0.518962
 H         0.275440         0.716814         1.680232
 H         0.203804         2.523222        -1.244308
 H        -0.527936         1.069955        -2.186815
 H        -3.921813         3.085534        -1.260431
 H        -2.875671         3.043379        -3.017703
 H        -3.804519         1.366225        -0.034285
 H        -2.384361        -0.252080         0.914727
 H        -1.899453        -0.688386        -0.707158
 H        -0.540893         3.191224         0.721593
 H        -2.098602         2.816212         1.310623
