19
Iteration:  4180
 O         0.349247         0.390523         0.899806
 C        -0.742476         1.100028         0.132392
 C        -0.659405         1.594139        -1.328257
 C        -1.978222         2.216921        -0.895381
 C        -3.070597         2.754975        -1.818180
 O        -3.349930         1.294644        -2.191437
 C        -2.913353         1.066384        -0.777636
 C        -1.926847         0.070536         0.072152
 C        -1.361008         2.474221         0.530432
 H         1.188840         0.425104         0.520074
 H         0.067498         2.390284        -1.393587
 H        -0.787717         0.858885        -2.193236
 H        -3.914846         3.121145        -1.029307
 H        -2.825312         3.180692        -2.767390
 H        -3.847151         1.533720        -0.219917
 H        -2.380771        -0.456338         0.926471
 H        -1.500780        -0.697599        -0.714002
 H        -0.686770         3.338348         0.504155
 H        -2.090840         2.606565         1.268202
