19
Iteration:  4445charge 0 multiplicity 1
 O         0.389235         0.618826         0.831914
 C        -0.792841         0.969969         0.132142
 C        -0.578695         1.555394        -1.280639
 C        -1.937177         2.252693        -0.876105
 C        -2.950666         2.769802        -1.899532
 O        -3.408529         1.361896        -2.142376
 C        -2.955031         1.091817        -0.688059
 C        -1.950398        -0.030333        -0.060074
 C        -1.474506         2.261462         0.558806
 H         0.864239         1.426553         0.819534
 H         0.148682         2.404553        -1.404025
 H        -0.536021         0.786593        -2.078837
 H        -3.746365         3.375722        -1.381379
 H        -2.588563         3.329675        -2.791427
 H        -3.806570         1.060884         0.053381
 H        -2.442542        -0.457749         0.922893
 H        -1.828285        -0.847786        -0.789662
 H        -0.554364         2.951095         0.797762
 H        -2.142703         2.422501         1.397491
