19
Iteration:  3995charge 0 multiplicity 1
 O         0.473979         0.497450         0.710732
 C        -0.788801         1.022970         0.199829
 C        -0.748162         1.520323        -1.195213
 C        -1.967211         2.300944        -0.869358
 C        -2.827325         2.669496        -2.040466
 O        -3.465424         1.293603        -1.998792
 C        -2.918009         1.099275        -0.665361
 C        -1.992455         0.107369        -0.028430
 C        -1.469499         2.427156         0.548849
 H         1.189040         1.030954         0.396601
 H         0.018887         2.281011        -1.440667
 H        -0.800659         0.653585        -1.932246
 H        -3.610176         3.331246        -1.882262
 H        -2.340832         2.818455        -2.961656
 H        -3.638825         1.287669         0.038133
 H        -2.522181        -0.212393         0.883710
 H        -1.705654        -0.738395        -0.689538
 H        -0.656003         3.180253         0.636350
 H        -2.148423         2.532814         1.387291
