19
Iteration:  4137charge 0 multiplicity 1
 O         0.309921         0.456526         0.746416
 C        -0.773312         1.024816         0.150486
 C        -0.723196         1.702735        -1.322283
 C        -1.945923         2.358708        -0.857203
 C        -2.916190         2.629749        -2.013360
 O        -3.337954         1.215450        -2.007738
 C        -2.930459         1.129624        -0.579727
 C        -2.031035         0.032212        -0.105723
 C        -1.340185         2.415049         0.585095
 H         1.016917         1.071669         0.918629
 H         0.079149         2.436189        -1.264006
 H        -0.729295         0.988626        -2.187255
 H        -3.809819         3.267843        -1.771320
 H        -2.385817         2.899600        -2.909225
 H        -3.779319         1.375349         0.154287
 H        -2.332356        -0.510070         0.820178
 H        -1.627124        -0.710025        -0.926264
 H        -0.708342         3.249536         0.885893
 H        -1.967714         2.254529         1.393392
