19
Iteration:   426
 O         0.423198         0.612481         0.835328
 C        -0.759441         1.017039         0.155406
 C        -0.698875         1.703473        -1.249896
 C        -2.037313         2.313117        -0.782295
 C        -2.919396         2.722322        -1.892916
 O        -3.352044         1.373551        -2.110643
 C        -2.986327         0.976985        -0.642286
 C        -1.937586        -0.040621        -0.264820
 C        -1.416114         2.336809         0.580918
 H         0.285201        -0.364093         0.656977
 H        -0.006171         2.497116        -1.154216
 H        -0.651725         1.224528        -2.199354
 H        -3.807243         3.272141        -1.530994
 H        -2.443432         3.035412        -2.759582
 H        -3.785353         1.011810         0.108116
 H        -2.178578        -0.726325         0.553105
 H        -1.529339        -0.668491        -1.104638
 H        -0.502542         2.944087         0.710565
 H        -2.069864         2.255007         1.498455
