19
Iteration:  2253charge 0 multiplicity 1
 O         0.401203         0.419436         0.795327
 C        -0.742505         0.945243         0.045314
 C        -0.712431         1.588311        -1.356747
 C        -1.952354         2.308395        -0.907275
 C        -3.021579         2.682851        -1.911305
 O        -3.338091         1.237711        -1.988963
 C        -2.948941         1.164508        -0.603679
 C        -2.048924         0.095450        -0.019794
 C        -1.231074         2.536377         0.466309
 H         0.069212         0.287270         1.724529
 H         0.177621         2.234200        -1.547269
 H        -0.890011         0.995812        -2.307566
 H        -3.814912         3.240194        -1.324849
 H        -2.727668         3.196455        -2.901329
 H        -3.841212         1.360686        -0.030211
 H        -2.380151        -0.232694         1.000290
 H        -1.986858        -0.768637        -0.605446
 H        -0.449925         3.365659         0.400732
 H        -1.876288         2.543148         1.352451
