19
Iteration:   257charge 0 multiplicity 1
 O         0.367263         0.474262         0.821261
 C        -0.704550         1.028837         0.145856
 C        -0.685624         1.786155        -1.305207
 C        -1.986319         2.349897        -0.762258
 C        -3.068320         2.708893        -1.779420
 O        -3.290172         1.245712        -2.142052
 C        -2.904973         1.045621        -0.699289
 C        -1.912129        -0.004552        -0.279050
 C        -1.435144         2.417561         0.644282
 H        -0.010761        -0.427791         1.086210
 H         0.169911         2.519585        -1.587853
 H        -0.497923         1.047808        -2.145925
 H        -4.016309         3.191549        -1.470268
 H        -2.633589         3.204136        -2.689585
 H        -3.772935         1.110949        -0.000318
 H        -2.244464        -0.748404         0.477689
 H        -1.536029        -0.568259        -1.110839
 H        -0.630749         3.206771         0.852656
 H        -2.301503         2.554092         1.363991
