19
Iteration:  1140charge 0 multiplicity 1
 O         0.463025         0.589834         0.669876
 C        -0.787727         0.967051         0.133279
 C        -0.676281         1.504331        -1.299443
 C        -1.974365         2.256261        -0.866422
 C        -2.912870         2.776728        -1.955273
 O        -3.395442         1.298855        -2.079260
 C        -2.941069         1.173877        -0.672494
 C        -1.974350         0.038937        -0.016276
 C        -1.455710         2.374493         0.656839
 H         0.450296         0.258992         1.639271
 H         0.270211         2.023570        -1.461241
 H        -0.758477         0.884846        -2.204110
 H        -3.623898         3.559712        -1.731202
 H        -2.498306         3.057200        -2.949866
 H        -3.846115         1.075160         0.037282
 H        -2.423016        -0.249926         1.109790
 H        -1.713032        -0.861176        -0.609631
 H        -0.614189         3.111507         0.833685
 H        -2.265262         2.421080         1.335790
