19
Iteration:  4174
 O         0.319275         0.341774         0.895937
 C        -0.676404         1.148073         0.157879
 C        -0.702731         1.610875        -1.304637
 C        -1.998565         2.246462        -0.843148
 C        -3.102178         2.732508        -1.826270
 O        -3.320098         1.293297        -2.180037
 C        -2.940338         1.050693        -0.747230
 C        -1.941510         0.044998         0.011410
 C        -1.321027         2.532215         0.487000
 H         1.213345         0.449497         0.443983
 H         0.169293         2.312285        -1.422693
 H        -0.536705         0.968247        -2.158418
 H        -3.834945         3.144011        -1.220645
 H        -2.883317         3.127216        -2.854488
 H        -3.817362         1.384162        -0.246604
 H        -2.438238        -0.456350         0.870467
 H        -1.500889        -0.758341        -0.537505
 H        -0.593630         3.353936         0.417835
 H        -2.185625         2.515328         1.257834
