19
Iteration:   860charge 0 multiplicity 1
 O         0.260888         0.449192         0.880604
 C        -0.781471         1.018105         0.111884
 C        -0.583491         1.597983        -1.397557
 C        -1.995638         2.313569        -0.936944
 C        -3.040857         2.768301        -1.853286
 O        -3.452560         1.274415        -2.047010
 C        -2.830691         1.044477        -0.673718
 C        -1.896759         0.014481         0.002586
 C        -1.298359         2.515454         0.563769
 H         0.980354         0.265959         0.226417
 H         0.151727         2.425023        -1.297575
 H        -0.744820         0.897911        -2.181378
 H        -3.826747         3.376298        -1.454175
 H        -2.619043         3.161509        -2.794512
 H        -3.904352         1.215214        -0.235435
 H        -2.316942        -0.663961         0.749898
 H        -1.536661        -0.662765        -0.800028
 H        -0.541720         3.212698         0.535060
 H        -2.064843         2.520344         1.342604
