19
Iteration:   917
 O         0.339193         0.503869         0.737985
 C        -0.778442         1.012190         0.101492
 C        -0.668577         1.639874        -1.267574
 C        -1.964393         2.300563        -0.851766
 C        -2.949222         2.637087        -2.033856
 O        -3.441369         1.313542        -1.970595
 C        -2.902610         1.134383        -0.649802
 C        -2.001227        -0.017284        -0.128590
 C        -1.296052         2.391483         0.628007
 H         0.861139         1.162201         1.187155
 H         0.132695         2.325515        -1.588287
 H        -0.621642         0.958998        -2.111446
 H        -3.589154         3.507329        -1.785591
 H        -2.468973         2.858083        -2.966360
 H        -3.818584         1.244868         0.180167
 H        -2.320139        -0.363352         0.837862
 H        -1.974706        -0.918410        -0.699047
 H        -0.534615         3.079045         0.795500
 H        -1.921787         2.479255         1.516087
