19
Iteration:  4135charge 0 multiplicity 1
 O         0.331378         0.460690         0.743613
 C        -0.792727         1.029241         0.154237
 C        -0.716290         1.699166        -1.320625
 C        -1.945618         2.356059        -0.880021
 C        -2.903025         2.622117        -2.024634
 O        -3.344811         1.228761        -1.996978
 C        -2.927349         1.124703        -0.566852
 C        -2.035762         0.034977        -0.111623
 C        -1.336530         2.405990         0.589547
 H         1.002605         1.072040         0.972325
 H         0.060894         2.482145        -1.311354
 H        -0.741516         1.020661        -2.173211
 H        -3.861571         3.245882        -1.737039
 H        -2.312509         2.882199        -2.922313
 H        -3.812233         1.360556         0.168544
 H        -2.373983        -0.495216         0.787704
 H        -1.677581        -0.694069        -0.897458
 H        -0.753902         3.257765         0.907749
 H        -2.041377         2.159850         1.398688
