19
Iteration:  3687
 O         0.233590         0.301859         0.771537
 C        -0.741685         1.081938         0.150124
 C        -0.675544         1.534334        -1.282262
 C        -2.011124         2.317616        -0.851044
 C        -3.015688         2.653945        -1.929106
 O        -3.318608         1.256670        -2.065459
 C        -2.945294         1.090800        -0.613489
 C        -1.934205         0.039671         0.027030
 C        -1.247551         2.678578         0.399043
 H         0.790782         0.919956         1.210876
 H         0.294737         2.052899        -1.561203
 H        -0.827322         0.866774        -2.105231
 H        -3.930007         3.370282        -1.644644
 H        -2.639635         3.063877        -2.889615
 H        -3.719147         1.371500         0.033710
 H        -2.447141        -0.214923         0.933844
 H        -1.656145        -0.878453        -0.476553
 H        -0.370239         3.363658         0.319422
 H        -1.898059         2.969280         1.298657
