19
Iteration:  3296charge 0 multiplicity 1
 O         0.538424         0.542891         0.765321
 C        -0.754144         0.943912         0.181781
 C        -0.687682         1.493926        -1.271981
 C        -1.985815         2.254679        -0.851874
 C        -2.907696         2.719836        -1.954457
 O        -3.409400         1.376434        -2.080960
 C        -2.931297         1.125139        -0.702134
 C        -2.068754        -0.012007        -0.075397
 C        -1.426462         2.406664         0.591809
 H         1.011396         1.411587         0.960623
 H         0.091105         2.247883        -1.659276
 H        -0.932932         0.793498        -2.115127
 H        -3.739139         3.275177        -1.587884
 H        -2.508281         3.106978        -2.885483
 H        -3.867654         1.348757        -0.017933
 H        -2.562800        -0.319312         0.852396
 H        -1.910459        -0.864828        -0.659187
 H        -0.880972         3.309084         0.977140
 H        -2.226915         2.386831         1.390780
