19
Iteration:  3677
 O         0.347234         0.345804         0.785049
 C        -0.724296         1.028108         0.155101
 C        -0.731333         1.475101        -1.303707
 C        -2.017764         2.303927        -0.842675
 C        -3.034452         2.654486        -1.969424
 O        -3.319127         1.269572        -2.119344
 C        -2.887383         1.179628        -0.595753
 C        -2.004766         0.148927         0.049853
 C        -1.307005         2.549448         0.433509
 H         0.912046         0.751687         1.413636
 H         0.153794         2.186239        -1.481284
 H        -0.891334         0.742413        -2.043886
 H        -3.966500         3.240658        -1.551158
 H        -2.481418         3.160079        -2.715986
 H        -3.753537         1.441663        -0.024017
 H        -2.360281        -0.353670         1.056121
 H        -1.678650        -0.675745        -0.572789
 H        -0.516928         3.223170         0.062292
 H        -1.995542         2.948308         1.300126
