19
Iteration:  1498charge 0 multiplicity 1
 O         0.419388         0.692470         0.847428
 C        -0.743543         0.956823         0.180266
 C        -0.682579         1.553334        -1.302010
 C        -1.958202         2.248401        -0.863793
 C        -2.955676         2.785515        -1.922415
 O        -3.434956         1.418095        -2.114180
 C        -2.918870         0.999252        -0.724458
 C        -2.018556        -0.066055        -0.040147
 C        -1.368928         2.347539         0.555253
 H         0.818865        -0.136030         0.613003
 H         0.251018         2.165182        -1.265790
 H        -0.750186         0.967406        -2.217382
 H        -3.631941         3.469880        -1.380779
 H        -2.507493         3.185307        -2.848975
 H        -3.796182         1.232567         0.047678
 H        -2.566417        -0.422719         0.976074
 H        -1.831513        -1.021176        -0.720581
 H        -0.510080         3.049089         0.405467
 H        -2.083807         2.449584         1.288983
