19
Iteration:  1401charge 0 multiplicity 1
 O         0.398742         0.494408         0.724042
 C        -0.798712         1.065741         0.155291
 C        -0.588272         1.634464        -1.246488
 C        -1.939927         2.282637        -0.906348
 C        -3.009486         2.735801        -1.920347
 O        -3.404167         1.294330        -2.049289
 C        -2.858604         1.108906        -0.649314
 C        -1.960440         0.005857        -0.134444
 C        -1.441680         2.395854         0.617588
 H         0.296934         0.278145         1.629518
 H         0.353447         2.203941        -1.553302
 H        -0.604562         0.774147        -1.970446
 H        -3.875978         3.358488        -1.618921
 H        -2.728451         3.063680        -2.951955
 H        -3.706351         1.301819        -0.006966
 H        -2.485441        -0.468718         0.733393
 H        -1.663086        -0.770027        -0.879941
 H        -0.587639         3.107577         0.816228
 H        -2.354309         2.379026         1.232505
