19
Iteration:  2044charge 0 multiplicity 1
 O         0.371190         0.360521         0.788752
 C        -0.711210         0.956755         0.177430
 C        -0.634545         1.580763        -1.320376
 C        -1.899598         2.337313        -0.924110
 C        -3.059342         2.670199        -2.011286
 O        -3.494924         1.289650        -1.922517
 C        -2.878240         1.185298        -0.630859
 C        -1.971534         0.014858        -0.036796
 C        -1.345793         2.602290         0.412044
 H         0.200344         0.297219         1.784482
 H         0.203092         2.379205        -1.451207
 H        -0.529497         0.853665        -2.164330
 H        -3.738973         3.387789        -1.553791
 H        -2.757459         2.912399        -3.054953
 H        -3.643488         1.628418         0.165210
 H        -2.351724        -0.604765         0.763177
 H        -1.729230        -0.793255        -0.807923
 H        -0.407084         3.214952         0.426277
 H        -1.877612         2.743309         1.261428
