19
Iteration:   849
 O         0.279013         0.465624         0.899771
 C        -0.742980         1.020022         0.140900
 C        -0.683669         1.639949        -1.299115
 C        -1.941594         2.287553        -0.877964
 C        -3.100757         2.695621        -1.861182
 O        -3.383453         1.278721        -2.095178
 C        -2.887256         1.102416        -0.644984
 C        -1.942892         0.063460        -0.111668
 C        -1.277180         2.426779         0.473796
 H         1.004955         0.118333         0.275815
 H         0.131873         2.353305        -1.518379
 H        -0.641445         1.069753        -2.202873
 H        -3.939167         3.250755        -1.460957
 H        -2.758036         3.170583        -2.806408
 H        -3.664261         1.267501         0.193159
 H        -2.278706        -0.279146         0.862175
 H        -1.647687        -0.736959        -0.798362
 H        -0.409885         2.982751         0.587179
 H        -1.829137         2.657956         1.383538
