19
Iteration:  2662charge 0 multiplicity 1
 O         0.381661         0.547399         0.688946
 C        -0.775104         1.040915         0.157753
 C        -0.658973         1.477568        -1.274810
 C        -1.926861         2.304485        -0.869992
 C        -2.975983         2.699295        -1.983726
 O        -3.474457         1.301315        -2.061612
 C        -2.928338         1.185641        -0.626858
 C        -1.975551         0.006621         0.031773
 C        -1.276005         2.423437         0.521062
 H         0.262729        -0.137041         1.385600
 H         0.140069         2.172161        -1.492267
 H        -0.854262         0.673195        -1.944679
 H        -3.771797         3.394823        -1.631249
 H        -2.733071         3.078773        -3.030441
 H        -3.611078         1.477791         0.119177
 H        -2.386458        -0.276600         0.920745
 H        -1.688249        -0.762998        -0.692977
 H        -0.409089         3.173407         0.667443
 H        -1.874270         2.570470         1.413576
