19
Iteration:  4637
 O         0.243010         0.324532         0.811682
 C        -0.744107         1.001554         0.069793
 C        -0.490642         1.716236        -1.222832
 C        -1.982782         2.342938        -0.854819
 C        -3.072922         2.610230        -1.926118
 O        -3.313741         1.210550        -2.063531
 C        -2.852279         1.121563        -0.621907
 C        -1.923141         0.075945        -0.162796
 C        -1.472377         2.567801         0.583691
 H         1.088431         0.775557         0.886385
 H         0.189070         2.482608        -1.255074
 H        -0.545757         1.190148        -2.180323
 H        -3.891360         3.137348        -1.371010
 H        -3.054947         3.155587        -2.898593
 H        -3.803094         1.270461        -0.082318
 H        -2.314273        -0.330813         0.723820
 H        -1.789880        -0.720835        -1.024732
 H        -0.721496         3.236244         0.693412
 H        -2.177015         2.591463         1.380287
