19
Iteration:   236charge 0 multiplicity 1
 O         0.324111         0.632976         0.868752
 C        -0.781846         0.948001         0.003161
 C        -0.621208         1.790072        -1.253061
 C        -1.974244         2.282344        -0.811644
 C        -3.020040         2.731178        -1.902514
 O        -3.373084         1.309564        -2.007801
 C        -2.855918         1.061804        -0.705152
 C        -1.904556        -0.038477        -0.292571
 C        -1.446699         2.266106         0.626215
 H         0.333935        -0.289456         1.163889
 H         0.203358         2.598740        -1.149056
 H        -0.301083         1.403860        -2.301983
 H        -3.874808         3.237071        -1.412985
 H        -2.752427         3.188262        -2.862085
 H        -3.650013         1.243056         0.066575
 H        -2.318740        -0.533638         0.609517
 H        -1.636132        -0.763661        -1.052718
 H        -0.577596         2.989200         0.784432
 H        -2.002606         1.956277         1.625863
