19
Iteration:  2563charge 0 multiplicity 1
 O         0.416507         0.587756         0.675362
 C        -0.746808         0.999500         0.125924
 C        -0.587852         1.498080        -1.258193
 C        -1.962696         2.192666        -0.942271
 C        -2.835386         2.688176        -2.020116
 O        -3.580083         1.378304        -1.896948
 C        -3.029607         1.181711        -0.634074
 C        -2.017166         0.031659        -0.032570
 C        -1.330222         2.372754         0.504758
 H         0.553632         0.717634         1.680071
 H         0.197545         2.313919        -1.426710
 H        -0.631656         0.781810        -2.096649
 H        -3.511235         3.528141        -1.656623
 H        -2.231620         2.682246        -3.009575
 H        -3.793178         1.348269         0.112936
 H        -2.324429        -0.354558         0.866989
 H        -1.620155        -0.821497        -0.667772
 H        -0.527560         3.151444         0.642361
 H        -1.997631         2.220335         1.394893
