19
Iteration:  3561
 O         0.267960         0.538911         0.961183
 C        -0.662920         0.960477         0.052880
 C        -0.586827         1.590248        -1.425503
 C        -1.857785         2.275556        -0.922091
 C        -3.052063         2.681468        -1.885837
 O        -3.427082         1.225027        -1.987483
 C        -2.869205         1.196298        -0.664349
 C        -2.089212         0.116587        -0.042249
 C        -1.335502         2.432675         0.483352
 H         0.964208        -0.046397         0.559251
 H         0.348704         2.155303        -1.529364
 H        -0.807109         0.818487        -2.208706
 H        -3.913814         3.337974        -1.436937
 H        -2.834449         2.903963        -2.994759
 H        -3.628057         1.576158        -0.016252
 H        -2.301479        -0.218029         0.994271
 H        -1.818220        -0.676479        -0.671323
 H        -0.515492         3.079551         0.562406
 H        -2.121273         2.404654         1.236220
