19
Iteration:   791
 O         0.441282         0.565237         0.703346
 C        -0.730511         0.995469         0.125001
 C        -0.634212         1.575216        -1.283315
 C        -1.994702         2.265779        -0.787110
 C        -2.919903         2.780532        -2.000879
 O        -3.469998         1.349782        -2.044993
 C        -2.954032         1.004601        -0.689607
 C        -1.952759        -0.017271        -0.034773
 C        -1.443441         2.515560         0.625017
 H         0.514660        -0.354137         0.807894
 H         0.106812         2.296712        -1.277544
 H        -0.709802         0.932046        -2.131331
 H        -3.640705         3.528205        -1.943360
 H        -2.333914         2.909353        -2.912789
 H        -3.891965         1.019760         0.012345
 H        -2.339327        -0.400607         0.925031
 H        -1.642373        -1.025264        -0.480827
 H        -0.606159         3.218678         0.774741
 H        -2.056383         2.402141         1.458728
