19
Iteration:   629
 O         0.360324         0.472487         0.806767
 C        -0.696129         1.051830         0.116166
 C        -0.646198         1.760143        -1.262030
 C        -2.043396         2.306374        -0.787170
 C        -3.089065         2.721089        -1.948826
 O        -3.351304         1.263032        -2.099994
 C        -2.862301         1.081385        -0.694540
 C        -1.969201        -0.005015        -0.089899
 C        -1.332064         2.418597         0.606299
 H         0.342864        -0.509889         0.491847
 H         0.195764         2.455857        -1.350638
 H        -0.714405         1.061234        -2.133688
 H        -4.004703         3.250174        -1.712510
 H        -2.537802         3.124893        -2.833937
 H        -3.672755         1.239802        -0.026784
 H        -2.257460        -0.482730         0.795446
 H        -1.767849        -0.842362        -0.734846
 H        -0.666077         3.257582         0.590890
 H        -2.010955         2.265409         1.549315
