19
Iteration:  3842
 O         0.428477         0.477902         0.763632
 C        -0.771567         1.047445         0.203177
 C        -0.677808         1.566647        -1.304480
 C        -1.957413         2.249335        -0.880841
 C        -2.921102         2.559235        -2.008787
 O        -3.444871         1.279648        -2.048454
 C        -2.947568         1.113471        -0.643044
 C        -2.005730         0.127949         0.008533
 C        -1.337349         2.577046         0.526951
 H         0.477071        -0.510772         0.901528
 H         0.102201         2.343029        -1.328969
 H        -0.761780         0.908254        -2.172836
 H        -3.663926         3.413240        -1.647895
 H        -2.465368         3.053881        -2.833048
 H        -3.853089         1.366551         0.059864
 H        -2.438060        -0.318811         0.830407
 H        -1.715454        -0.675360        -0.620614
 H        -0.572654         3.314632         0.379028
 H        -2.035048         2.687078         1.392879
