19
Iteration:  1094charge 0 multiplicity 1
 O         0.378601         0.499990         0.783674
 C        -0.781483         0.981988         0.120849
 C        -0.682841         1.545485        -1.284341
 C        -2.016460         2.293784        -0.796092
 C        -3.037160         2.770765        -1.895743
 O        -3.390413         1.275823        -2.102040
 C        -2.887837         1.107416        -0.730223
 C        -1.958681         0.025778        -0.072877
 C        -1.274647         2.488135         0.517673
 H         0.257456         0.538267         1.746525
 H         0.192037         2.158302        -1.429578
 H        -0.755371         0.850502        -2.144439
 H        -3.974914         3.183384        -1.581741
 H        -2.700939         3.317508        -2.757670
 H        -3.617386         1.233424         0.028452
 H        -2.359552        -0.419185         0.973226
 H        -1.745469        -0.905454        -0.710100
 H        -0.283890         3.005330         0.429047
 H        -1.765660         2.660747         1.442721
