19
Iteration:  4766
 O         0.193208         0.335255         0.902965
 C        -0.752518         1.039662         0.065540
 C        -0.567459         1.795572        -1.307786
 C        -2.002080         2.377861        -0.816992
 C        -3.045691         2.712674        -1.962093
 O        -3.343932         1.215777        -2.065256
 C        -2.890551         1.025840        -0.628503
 C        -1.865727         0.035414        -0.133566
 C        -1.381117         2.487525         0.549440
 H         1.173558         0.603539         0.939323
 H         0.259215         2.447423        -1.334750
 H        -0.702321         1.206252        -2.226958
 H        -3.984764         3.122628        -1.736217
 H        -2.786054         3.055824        -2.935077
 H        -3.747505         1.149406         0.004375
 H        -2.151612        -0.516348         0.705640
 H        -1.480211        -0.762358        -0.879070
 H        -0.647394         3.264228         0.617436
 H        -2.077959         2.507816         1.474918
