19
Iteration:  1553
 O         0.222598         0.345545         0.869928
 C        -0.777779         0.971791         0.108877
 C        -0.603713         1.683858        -1.315336
 C        -1.948009         2.342651        -0.894157
 C        -3.010668         2.666593        -1.974712
 O        -3.433671         1.207393        -1.955891
 C        -2.853579         1.154481        -0.636398
 C        -1.930194         0.059708        -0.172617
 C        -1.319839         2.519418         0.541602
 H         0.997543         0.799387         0.662351
 H         0.168807         2.388266        -1.033056
 H        -0.528958         1.120242        -2.216702
 H        -3.856313         3.312713        -1.643978
 H        -2.620630         2.981253        -2.964727
 H        -3.732993         1.785040         0.007336
 H        -2.344302        -0.593991         0.746197
 H        -1.663670        -0.789201        -0.944852
 H        -0.389003         3.230377         0.735504
 H        -1.948789         2.720250         1.366244
