19
Iteration:  3967charge 0 multiplicity 1
 O         0.372518         0.542411         0.776864
 C        -0.786228         0.990175         0.059921
 C        -0.687121         1.571934        -1.307824
 C        -1.933804         2.323919        -0.855988
 C        -2.932234         2.654065        -2.061504
 O        -3.381521         1.273472        -2.062026
 C        -2.972181         1.125499        -0.528028
 C        -2.025047         0.052836        -0.007129
 C        -1.299850         2.379930         0.547754
 H         0.753387         1.164789         1.373631
 H         0.068702         2.333930        -1.467802
 H        -0.682734         0.870828        -2.104321
 H        -3.907135         3.219574        -1.689244
 H        -2.603080         2.961136        -3.128593
 H        -3.841754         1.445155         0.238423
 H        -2.387234        -0.300537         0.975341
 H        -1.907599        -0.842515        -0.627868
 H        -0.429018         3.077785         0.571333
 H        -1.893323         2.426909         1.471966
