19
Iteration:  3228charge 0 multiplicity 1
 O         0.154165         0.297131         0.908685
 C        -0.702158         1.064851         0.118726
 C        -0.580628         1.635651        -1.343390
 C        -1.901581         2.326156        -0.918268
 C        -3.052198         2.658721        -1.965970
 O        -3.426208         1.172867        -1.941838
 C        -2.893338         1.210401        -0.582073
 C        -1.908769         0.139034        -0.221248
 C        -1.327683         2.486291         0.500120
 H         0.896189         0.878077         0.948513
 H         0.185795         2.433664        -1.488262
 H        -0.414477         0.948538        -2.231589
 H        -3.855377         3.091805        -1.366986
 H        -2.786598         3.072948        -2.870413
 H        -3.766926         1.513041         0.167936
 H        -2.136429        -0.490252         0.554735
 H        -1.554351        -0.493719        -1.118868
 H        -0.505522         3.283978         0.712378
 H        -1.935404         2.571839         1.395110
