19
Iteration:  2068
 O         0.368407         0.518817         0.659103
 C        -0.731929         1.052611         0.131851
 C        -0.639581         1.545100        -1.332401
 C        -1.975265         2.259568        -0.851484
 C        -2.857055         2.634213        -2.072766
 O        -3.580231         1.287507        -1.926867
 C        -3.023490         1.143078        -0.639362
 C        -2.003129         0.125321        -0.041925
 C        -1.223654         2.422111         0.586632
 H         0.427974         0.692764         1.645967
 H         0.278126         2.215696        -1.242151
 H        -0.375070         0.750402        -2.097867
 H        -3.512363         3.468809        -1.854827
 H        -2.201123         2.660697        -3.014935
 H        -3.831000         1.521215         0.177637
 H        -2.399899        -0.396232         0.890890
 H        -1.809624        -0.751403        -0.650723
 H        -0.440964         3.081082         0.834976
 H        -1.919447         2.269040         1.442053
