19
Iteration:  3915
 O         0.358744         0.470125         0.802368
 C        -0.785126         1.027780         0.189949
 C        -0.593928         1.471858        -1.256503
 C        -1.900987         2.244401        -0.933820
 C        -3.111493         2.709043        -1.919782
 O        -3.457022         1.270797        -2.020753
 C        -2.893602         1.132559        -0.686967
 C        -1.922849         0.125678        -0.031201
 C        -1.304099         2.539539         0.407167
 H         0.137463         0.239716         1.690214
 H         0.295251         2.216423        -1.287957
 H        -0.503456         0.725705        -2.048450
 H        -3.870803         3.303901        -1.499482
 H        -2.932685         3.067340        -2.948719
 H        -3.554290         1.459661         0.032014
 H        -2.404122        -0.543048         0.772074
 H        -1.508167        -0.744254        -0.707972
 H        -0.491883         3.217772         0.308578
 H        -2.062146         2.786513         1.176336
