19
Iteration:  1546
 O         0.260755         0.342953         0.945476
 C        -0.768474         0.958084         0.118881
 C        -0.619924         1.710179        -1.332665
 C        -1.964144         2.327096        -0.879047
 C        -3.023820         2.659446        -1.964547
 O        -3.408774         1.254608        -1.978665
 C        -2.879224         1.181122        -0.626046
 C        -1.938862         0.031586        -0.177388
 C        -1.346760         2.529647         0.477535
 H         1.141272         0.588222         0.564937
 H         0.199474         2.515969        -1.360803
 H        -0.552241         0.987087        -2.207307
 H        -3.771291         3.277212        -1.461314
 H        -2.683495         2.994905        -2.948324
 H        -3.488716         1.515642         0.146584
 H        -2.290870        -0.473017         0.718538
 H        -1.719334        -0.698552        -0.936998
 H        -0.447609         2.982451         0.576105
 H        -2.145426         2.572103         1.268171
