19
Iteration:   181charge 0 multiplicity 1
 O         0.368946         0.483886         0.825056
 C        -0.787495         1.016769         0.152499
 C        -0.604606         1.740905        -1.199522
 C        -2.037120         2.258043        -0.756708
 C        -2.990728         2.776416        -1.835971
 O        -3.389250         1.322767        -2.078169
 C        -2.917009         0.972401        -0.718775
 C        -1.859434        -0.025719        -0.266811
 C        -1.510119         2.424505         0.547826
 H         0.972097         0.533739         0.118834
 H         0.194728         2.576506        -1.266469
 H        -0.582474         1.057909        -2.102496
 H        -3.897373         3.369899        -1.683220
 H        -2.433946         3.196485        -2.663119
 H        -3.673295         0.936525         0.079173
 H        -2.108153        -0.712154         0.573384
 H        -1.466430        -0.684328        -1.034866
 H        -0.559528         3.084956         0.720858
 H        -2.261370         2.369938         1.464351
