19
Iteration:  4742
 O         0.272889         0.341053         0.887356
 C        -0.740705         1.088244         0.151690
 C        -0.662599         1.713837        -1.305441
 C        -2.013292         2.263564        -0.871591
 C        -2.996969         2.740969        -1.911485
 O        -3.399502         1.236338        -2.102093
 C        -2.839121         1.046527        -0.724484
 C        -1.868500         0.103304        -0.142992
 C        -1.373546         2.421397         0.608445
 H         1.115135         0.775487         1.157995
 H         0.038492         2.586627        -1.518703
 H        -0.568914         0.987664        -2.133693
 H        -3.980620         3.077104        -1.500281
 H        -2.760160         3.174502        -2.889953
 H        -3.667350         1.305158        -0.098393
 H        -2.309417        -0.278714         0.757945
 H        -1.585903        -0.732424        -0.761373
 H        -0.711226         3.344023         0.640006
 H        -2.221854         2.572928         1.354565
