19
Iteration:  1556charge 0 multiplicity 1
 O         0.201017         0.347182         0.831031
 C        -0.772836         0.992690         0.106757
 C        -0.600306         1.668055        -1.286033
 C        -1.922054         2.347968        -0.904848
 C        -3.005381         2.669159        -1.977535
 O        -3.442756         1.195569        -1.951190
 C        -2.863558         1.156478        -0.639012
 C        -1.945060         0.056260        -0.156979
 C        -1.297689         2.512079         0.570378
 H         1.042427         0.937638         0.721356
 H         0.248376         2.377877        -1.033878
 H        -0.491971         1.149452        -2.284154
 H        -3.867858         3.303623        -1.761873
 H        -2.622874         2.976267        -2.963920
 H        -3.718900         1.598821        -0.039943
 H        -2.329542        -0.553819         0.730729
 H        -1.665110        -0.699598        -0.935041
 H        -0.571540         3.220482         0.709500
 H        -1.894195         2.755408         1.453344
