19
Iteration:  1955
 O         0.356871         0.514351         0.658863
 C        -0.731946         1.057032         0.199193
 C        -0.673407         1.418382        -1.291151
 C        -1.966765         2.285514        -0.881759
 C        -2.809526         2.669082        -2.032151
 O        -3.487413         1.282014        -1.984498
 C        -2.996941         1.206296        -0.568208
 C        -2.035408         0.068215         0.032390
 C        -1.331794         2.476352         0.571449
 H         1.125173         0.838697         0.056791
 H         0.251175         2.142016        -1.425922
 H        -0.793824         0.639498        -2.098708
 H        -3.485142         3.490797        -1.826650
 H        -2.440911         2.602554        -3.026176
 H        -3.950611         1.417001         0.057294
 H        -2.456700        -0.411248         0.921829
 H        -1.777920        -0.746276        -0.777042
 H        -0.509269         3.169457         0.864911
 H        -1.943052         2.541094         1.333593
