19
Iteration:  1410charge 0 multiplicity 1
 O         0.376505         0.419844         0.699737
 C        -0.725868         1.027067         0.174617
 C        -0.584870         1.606450        -1.268101
 C        -1.961387         2.335855        -0.874028
 C        -2.992576         2.702959        -1.935881
 O        -3.403146         1.254425        -2.047633
 C        -2.885936         1.119912        -0.652170
 C        -1.957768         0.055529        -0.123383
 C        -1.463207         2.482227         0.568893
 H         0.200535         0.343556         1.613636
 H         0.132703         2.435079        -1.134563
 H        -0.419533         0.911053        -2.103755
 H        -3.805945         3.219823        -1.393222
 H        -2.696449         3.147412        -2.905750
 H        -3.677426         1.372601        -0.035707
 H        -2.314259        -0.622199         0.803864
 H        -1.673092        -0.675192        -1.000208
 H        -0.809681         3.324635         0.974962
 H        -2.259470         2.387897         1.280070
