19
Iteration:   345charge 0 multiplicity 1
 O         0.403029         0.573852         0.721011
 C        -0.758656         0.999132         0.140528
 C        -0.755796         1.696099        -1.202275
 C        -1.996751         2.265243        -0.743633
 C        -2.914021         2.740966        -1.928687
 O        -3.375855         1.343365        -2.078796
 C        -2.892921         1.026511        -0.738343
 C        -1.886337        -0.049872        -0.276728
 C        -1.441753         2.335463         0.705254
 H         0.363872         0.393459         1.727092
 H         0.091025         2.474199        -1.336555
 H        -0.825820         1.077358        -2.144930
 H        -3.745032         3.447655        -1.616546
 H        -2.627314         3.168864        -2.925179
 H        -3.782638         1.074904        -0.064256
 H        -2.389003        -0.709030         0.432421
 H        -1.465004        -0.774625        -0.944813
 H        -0.789047         3.181251         0.775965
 H        -2.118653         2.425166         1.564627
