19
Iteration:  3235charge 0 multiplicity 1
 O         0.195116         0.314595         0.941764
 C        -0.749852         1.039086         0.157450
 C        -0.601321         1.653991        -1.347553
 C        -1.914024         2.305911        -0.935772
 C        -3.065702         2.742542        -1.974258
 O        -3.450139         1.160115        -1.934054
 C        -2.834918         1.170228        -0.630799
 C        -1.901551         0.109009        -0.219627
 C        -1.279861         2.506259         0.523571
 H         1.005078         0.888454         0.951367
 H         0.112579         2.410039        -1.578422
 H        -0.653553         0.938353        -2.138868
 H        -3.934985         3.401978        -1.503745
 H        -2.752321         3.109059        -3.012755
 H        -3.587772         1.334446         0.129819
 H        -2.272464        -0.556784         0.639351
 H        -1.692708        -0.480082        -1.134426
 H        -0.494407         3.180036         0.640824
 H        -2.100616         2.439050         1.238122
