19
Iteration:  4557
 O         0.401108         0.550390         0.804364
 C        -0.774517         1.005945         0.119095
 C        -0.661239         1.569768        -1.221143
 C        -1.965537         2.251997        -0.890185
 C        -2.960260         2.724433        -1.894164
 O        -3.400778         1.338236        -2.145936
 C        -2.907322         1.094252        -0.740165
 C        -1.941579        -0.043450        -0.119024
 C        -1.438746         2.394331         0.688450
 H         0.979251         1.334862         0.883618
 H         0.187609         2.232943        -1.432288
 H        -0.908685         0.841730        -1.958386
 H        -3.845164         3.263125        -1.579329
 H        -2.475209         3.138274        -2.813914
 H        -3.822989         1.324789        -0.067404
 H        -2.443508        -0.486865         0.839505
 H        -1.523867        -0.946881        -0.698058
 H        -0.670510         3.193965         0.797050
 H        -2.303096         2.510916         1.397571
