19
Iteration:  3918charge 0 multiplicity 1
 O         0.348123         0.444801         0.806822
 C        -0.785680         1.034723         0.174423
 C        -0.616581         1.487120        -1.247538
 C        -1.889688         2.247404        -0.931104
 C        -3.135812         2.688750        -1.942677
 O        -3.446804         1.287568        -2.030155
 C        -2.880531         1.119604        -0.684750
 C        -1.887710         0.111673        -0.016327
 C        -1.306991         2.548534         0.398842
 H         0.147872         0.285762         1.760281
 H         0.246315         2.210074        -1.338058
 H        -0.524357         0.694117        -2.024374
 H        -3.859292         3.359659        -1.302418
 H        -2.905661         3.043995        -2.916960
 H        -3.663808         1.496894         0.044537
 H        -2.382822        -0.450196         0.749137
 H        -1.548232        -0.696318        -0.710717
 H        -0.454722         3.229808         0.351647
 H        -2.052059         2.847220         1.166301
