19
Iteration:  3854charge 0 multiplicity 1
 O         0.423668         0.557110         0.748660
 C        -0.724235         1.064795         0.171967
 C        -0.707402         1.535926        -1.248479
 C        -1.997704         2.265033        -0.862033
 C        -2.837877         2.683518        -2.092790
 O        -3.526927         1.295084        -2.024820
 C        -2.948557         1.098778        -0.661095
 C        -1.967912         0.010292         0.000186
 C        -1.325540         2.518267         0.595937
 H         0.212549        -0.356845         0.844002
 H         0.075430         2.167067        -1.584114
 H        -0.820799         0.739284        -2.004214
 H        -3.710470         3.460853        -2.005704
 H        -2.365875         2.540398        -3.040492
 H        -3.826306         1.354471         0.049391
 H        -2.268548        -0.269032         0.943969
 H        -1.639337        -0.763422        -0.592928
 H        -0.505279         3.249308         0.733289
 H        -2.001170         2.726137         1.453637
