19
Iteration:  2209
 O         0.552502         0.554347         0.699114
 C        -0.706405         0.986824         0.199995
 C        -0.713564         1.498749        -1.254947
 C        -1.890784         2.267488        -0.859428
 C        -2.891006         2.683362        -2.061516
 O        -3.616818         1.439084        -1.962125
 C        -2.936070         1.096279        -0.640970
 C        -2.050475        -0.076570        -0.052441
 C        -1.388640         2.493333         0.502909
 H         0.494219         0.347264         1.677512
 H         0.198153         2.178298        -1.307330
 H        -0.690200         0.763504        -2.137238
 H        -3.612232         3.507653        -1.816263
 H        -2.406213         2.736073        -3.096886
 H        -3.596997         1.424331         0.094007
 H        -2.654753        -0.487219         0.803850
 H        -1.717916        -0.926174        -0.583248
 H        -0.403903         3.063352         0.714957
 H        -2.271225         2.705895         1.073960
