19
Iteration:  4565charge 0 multiplicity 1
 O         0.412271         0.575828         0.815616
 C        -0.748741         0.927742         0.159922
 C        -0.734610         1.561199        -1.260633
 C        -2.006700         2.282079        -0.815388
 C        -2.876526         2.762752        -1.926861
 O        -3.447374         1.337026        -2.167727
 C        -2.874724         1.004871        -0.717810
 C        -1.932037         0.012112        -0.082559
 C        -1.487443         2.379133         0.602881
 H         0.994555         1.372506         0.945377
 H         0.197846         2.241123        -1.367249
 H        -0.747909         0.868120        -2.135226
 H        -3.600148         3.477417        -1.528281
 H        -2.447484         3.232584        -2.804845
 H        -3.774652         1.213198        -0.124484
 H        -2.241705        -0.519347         0.876347
 H        -1.722254        -0.695135        -0.858722
 H        -0.703871         3.269305         0.776882
 H        -2.080126         2.365514         1.557005
