19
Iteration:  4948charge 0 multiplicity 1
 O         0.420572         0.591964         0.830440
 C        -0.861462         1.009527         0.149912
 C        -0.681590         1.549458        -1.242252
 C        -1.987991         2.221932        -0.803835
 C        -2.918056         2.746216        -1.953677
 O        -3.402747         1.325222        -2.074940
 C        -2.884010         1.105962        -0.675019
 C        -1.961840        -0.005331        -0.211365
 C        -1.427978         2.348711         0.586541
 H         1.037442         1.289506         0.781163
 H         0.123053         2.273149        -1.439826
 H        -0.730267         0.809404        -2.048932
 H        -3.684670         3.437462        -1.599903
 H        -2.304351         3.084389        -2.763894
 H        -3.798594         1.123912        -0.046246
 H        -2.385294        -0.417917         0.809500
 H        -1.621008        -0.802211        -0.873300
 H        -0.574590         2.978257         0.845313
 H        -2.287070         2.425429         1.266586
