19
Iteration:    34
 O         0.360265         0.313227         0.869357
 C        -0.751886         1.019445         0.172400
 C        -0.558231         1.717556        -1.259977
 C        -1.963630         2.279740        -0.914980
 C        -3.143603         2.670868        -1.870555
 O        -3.464891         1.356837        -2.055120
 C        -2.889505         1.035125        -0.691058
 C        -1.849984        -0.034756        -0.184549
 C        -1.431836         2.560042         0.493674
 H         1.087455         0.987201         1.179930
 H         0.174180         2.531233        -1.199585
 H        -0.430641         1.091275        -2.141026
 H        -3.885858         3.210209        -1.261708
 H        -2.939405         3.203986        -2.827113
 H        -3.597493         1.242906         0.094749
 H        -2.113256        -0.723612         0.602298
 H        -1.450579        -0.592704        -1.040988
 H        -0.600955         3.274517         0.533951
 H        -2.124844         2.663295         1.312950
