19
Iteration:  2949
 O         0.315334         0.470048         0.650127
 C        -0.758356         1.055517         0.094247
 C        -0.598380         1.701845        -1.291949
 C        -1.983050         2.299033        -0.795152
 C        -2.887258         2.614580        -2.065043
 O        -3.461250         1.251191        -1.939272
 C        -2.957537         1.106385        -0.652070
 C        -1.981169         0.134247        -0.034278
 C        -1.304456         2.406953         0.622665
 H         0.068087        -0.232707         1.301867
 H         0.329298         2.275920        -1.310649
 H        -0.546295         1.115518        -2.211004
 H        -3.664083         3.364078        -1.923793
 H        -2.373091         2.781432        -3.065505
 H        -3.749023         1.422540        -0.001996
 H        -2.365572        -0.373266         0.970145
 H        -1.741454        -0.787592        -0.637622
 H        -0.475850         3.155730         0.695479
 H        -2.119710         2.513768         1.487188
