19
Iteration:  2604charge 0 multiplicity 1
 O         0.401152         0.443483         0.688442
 C        -0.820875         1.022214         0.181822
 C        -0.731003         1.522076        -1.318966
 C        -1.952212         2.355745        -0.809395
 C        -3.030476         2.680407        -2.049559
 O        -3.381037         1.260851        -1.984847
 C        -2.935977         1.173973        -0.659506
 C        -1.938889         0.106383        -0.006763
 C        -1.235635         2.499176         0.545499
 H         0.082744        -0.268285         1.220529
 H         0.117091         2.124033        -1.396574
 H        -0.752008         0.881860        -2.175693
 H        -3.875165         3.279128        -1.723808
 H        -2.663850         2.837536        -3.035189
 H        -3.681393         1.497486         0.121843
 H        -2.457349        -0.299746         0.911297
 H        -1.551171        -0.825787        -0.419944
 H        -0.397845         3.183725         0.455674
 H        -2.010548         2.600317         1.405071
