19
Iteration:  4022charge 0 multiplicity 1
 O         0.335674         0.476524         0.855189
 C        -0.742220         1.006089         0.069719
 C        -0.616506         1.648356        -1.320597
 C        -1.957358         2.302087        -0.889954
 C        -2.976839         2.680082        -1.954858
 O        -3.455114         1.259306        -2.057509
 C        -2.924172         1.033769        -0.667710
 C        -1.984032         0.071835         0.061132
 C        -1.328484         2.500402         0.528915
 H         0.979933        -0.029815         0.372762
 H        -0.011876         2.542653        -1.346237
 H        -0.503297         0.968573        -2.111016
 H        -3.990602         3.309105        -1.824432
 H        -2.458396         2.965396        -2.959709
 H        -3.839715         1.274154         0.065464
 H        -2.275787        -0.341644         1.008192
 H        -1.766727        -0.573808        -0.741475
 H        -0.545172         3.275121         0.608070
 H        -1.938429         2.518971         1.471211
