19
Iteration:  2928
 O         0.521956         0.518648         0.716742
 C        -0.690817         0.996014         0.152858
 C        -0.686329         1.511509        -1.213120
 C        -1.978795         2.263856        -0.914821
 C        -2.941604         2.700938        -2.007252
 O        -3.480166         1.329805        -2.022329
 C        -2.943889         1.195753        -0.602849
 C        -2.027012         0.010707        -0.084124
 C        -1.431677         2.447226         0.540986
 H         0.396937         0.209796         1.597218
 H         0.088106         2.291212        -1.390080
 H        -0.630735         0.884531        -2.113763
 H        -3.581166         3.516589        -1.740667
 H        -2.384236         2.901734        -2.938888
 H        -3.675538         1.569820         0.064192
 H        -2.385334        -0.537586         0.790103
 H        -1.850731        -0.774900        -0.790278
 H        -0.571934         3.044810         0.816921
 H        -2.282853         2.404608         1.350688
