19
Iteration:  4207charge 0 multiplicity 1
 O         0.359016         0.610041         0.863585
 C        -0.784647         1.004644         0.061783
 C        -0.623435         1.536101        -1.291994
 C        -1.976039         2.292903        -0.840136
 C        -2.993776         2.725438        -1.933958
 O        -3.380695         1.353321        -2.027274
 C        -2.927799         1.082073        -0.723353
 C        -1.994300        -0.051495        -0.103464
 C        -1.341985         2.346860         0.555675
 H         1.215501         0.865642         0.581055
 H         0.180495         2.316971        -1.224403
 H        -0.750068         0.805976        -2.068589
 H        -3.729131         3.438568        -1.656433
 H        -2.587981         2.949539        -2.972154
 H        -3.773564         1.303568        -0.045427
 H        -2.525257        -0.277875         0.853404
 H        -1.781018        -0.977394        -0.611114
 H        -0.667557         3.129198         0.900290
 H        -2.144278         2.390276         1.389557
