19
Iteration:  2026charge 0 multiplicity 1
 O         0.380744         0.368248         0.888918
 C        -0.751217         1.013561         0.083903
 C        -0.607370         1.490279        -1.383284
 C        -1.887494         2.306032        -0.997442
 C        -3.080916         2.740403        -1.869948
 O        -3.438039         1.248453        -1.962992
 C        -2.865784         1.136985        -0.562557
 C        -1.965805         0.113408        -0.100603
 C        -1.306507         2.615276         0.393937
 H        -0.196667        -0.209842         1.494397
 H         0.221789         2.151563        -1.548947
 H        -0.844802         0.765948        -2.167397
 H        -3.921312         3.141730        -1.286164
 H        -2.864294         3.142667        -2.898273
 H        -3.656147         1.342840         0.100352
 H        -2.347883        -0.252325         0.911358
 H        -1.713143        -0.671763        -0.771229
 H        -0.630777         3.417762         0.556022
 H        -2.152100         2.905775         1.246666
