19
Iteration:  1417
 O         0.376807         0.362264         0.710514
 C        -0.717925         0.981150         0.111695
 C        -0.591126         1.644039        -1.224602
 C        -1.943407         2.313888        -0.857273
 C        -2.997973         2.645511        -1.935030
 O        -3.382533         1.236130        -2.035863
 C        -2.944633         1.138225        -0.699591
 C        -1.946596         0.095480        -0.113218
 C        -1.478354         2.543145         0.547317
 H         0.221370         0.258891         1.700527
 H         0.044212         2.488107        -1.053061
 H        -0.417781         1.224943        -2.219180
 H        -3.773828         3.262379        -1.436719
 H        -2.662272         3.226770        -2.778799
 H        -3.748172         1.410081         0.150540
 H        -2.169318        -0.509476         0.761135
 H        -1.588890        -0.547839        -0.907687
 H        -0.887489         3.419406         0.763944
 H        -2.095681         2.441175         1.483413
