19
Iteration:  4784charge 0 multiplicity 1
 O         0.268520         0.452280         0.832612
 C        -0.755041         1.033245         0.140368
 C        -0.632236         1.669507        -1.224527
 C        -1.962313         2.279107        -0.851068
 C        -3.009622         2.665489        -1.936058
 O        -3.341829         1.202022        -2.041498
 C        -2.884312         1.139209        -0.667089
 C        -1.949694         0.041621        -0.228984
 C        -1.424286         2.441674         0.594413
 H         1.002816         1.120969         0.626772
 H         0.076556         2.584418        -1.288200
 H        -0.306543         1.049363        -2.081898
 H        -3.874229         3.323561        -1.515864
 H        -2.518151         3.047348        -2.863933
 H        -3.851267         1.379169        -0.071586
 H        -2.393822        -0.452773         0.668103
 H        -1.655044        -0.588131        -1.013972
 H        -0.481297         3.063028         0.678997
 H        -2.034004         2.351389         1.503794
