19
Iteration:  4807charge 0 multiplicity 1
 O         0.435758         0.530966         0.803617
 C        -0.723240         1.023566         0.189906
 C        -0.664369         1.598809        -1.237225
 C        -1.987950         2.282222        -0.851914
 C        -2.924313         2.760359        -2.020240
 O        -3.437406         1.313689        -2.087861
 C        -2.915654         1.075800        -0.731061
 C        -1.962970        -0.073277        -0.097339
 C        -1.501720         2.371702         0.651471
 H         0.972677         1.298092         0.776219
 H         0.305992         2.186790        -1.437904
 H        -0.588187         0.871758        -2.101835
 H        -3.776809         3.427078        -1.601527
 H        -2.342568         3.205337        -2.837504
 H        -3.831369         1.288887        -0.042781
 H        -2.281557        -0.449997         0.837671
 H        -1.734523        -0.787887        -0.833294
 H        -0.726171         3.141380         0.877937
 H        -2.422709         2.424039         1.289305
