19
Iteration:  4488charge 0 multiplicity 1
 O         0.280050         0.410033         0.788737
 C        -0.753397         1.037569         0.169524
 C        -0.699313         1.658945        -1.223016
 C        -2.033489         2.315466        -0.788363
 C        -2.987910         2.702302        -2.046851
 O        -3.406000         1.278411        -2.095761
 C        -2.907551         1.112342        -0.663564
 C        -1.809698         0.031667        -0.131911
 C        -1.389565         2.399629         0.592914
 H         0.976300         0.983496         1.045837
 H         0.113905         2.427163        -1.174977
 H        -0.680855         0.941907        -2.065544
 H        -3.834237         3.354969        -1.855961
 H        -2.390812         3.023908        -2.884890
 H        -3.768812         1.413713         0.004253
 H        -2.033189        -0.561208         0.812908
 H        -1.417272        -0.696691        -0.838702
 H        -0.543317         3.223040         0.701523
 H        -2.056997         2.368286         1.482244
