19
Iteration:  2630charge 0 multiplicity 1
 O         0.359086         0.379195         0.797752
 C        -0.713074         1.031687         0.052506
 C        -0.641265         1.619323        -1.399530
 C        -1.996568         2.290000        -0.795450
 C        -3.018885         2.733146        -1.888272
 O        -3.327697         1.177778        -2.104087
 C        -3.006113         1.168194        -0.592442
 C        -2.002426         0.100206         0.064214
 C        -1.242158         2.551993         0.448818
 H        -0.094029        -0.323836         1.209626
 H         0.004392         2.478559        -1.791977
 H        -0.747975         0.884770        -2.218925
 H        -3.826330         3.169577        -1.262188
 H        -2.774198         3.149397        -2.928438
 H        -3.764152         1.540345         0.010277
 H        -2.295915        -0.084709         1.024394
 H        -1.852751        -0.921183        -0.308170
 H        -0.460646         3.383392         0.404691
 H        -1.849724         2.469466         1.301559
