19
Iteration:  1862
 O         0.407665         0.526732         0.882416
 C        -0.762944         0.936016         0.128243
 C        -0.610430         1.456909        -1.337572
 C        -1.910933         2.197921        -0.877789
 C        -2.958165         2.704621        -1.958540
 O        -3.548237         1.366711        -1.986224
 C        -2.909679         1.145576        -0.613821
 C        -2.000666         0.023351        -0.075418
 C        -1.366574         2.493379         0.417053
 H         1.219946         0.905304         0.595622
 H         0.173157         2.170364        -1.389257
 H        -0.633174         0.732248        -2.145036
 H        -3.495842         3.534362        -1.419482
 H        -2.521662         3.072947        -2.938065
 H        -3.781645         1.467895         0.177893
 H        -2.505807        -0.480025         0.829450
 H        -1.904624        -0.686699        -0.892563
 H        -0.606365         3.248529         0.557917
 H        -2.080397         2.836193         1.324426
