19
Iteration:  1340
 O         0.405480         0.518831         0.757202
 C        -0.766292         1.005026         0.145425
 C        -0.683523         1.577296        -1.240225
 C        -1.978054         2.301597        -0.861668
 C        -2.997917         2.735455        -1.919198
 O        -3.413155         1.284486        -2.080128
 C        -2.882690         1.070606        -0.735153
 C        -1.903617         0.045031        -0.101236
 C        -1.374441         2.497254         0.583945
 H         0.115074        -0.228027         1.211435
 H         0.088138         2.329758        -1.368261
 H        -0.745215         0.793970        -1.975544
 H        -3.809448         3.325429        -1.462959
 H        -2.468279         3.147481        -2.769659
 H        -3.723001         1.063821        -0.016407
 H        -2.467932        -0.383189         0.825046
 H        -1.561898        -0.783912        -0.724989
 H        -0.674094         3.243734         0.814667
 H        -2.199181         2.451797         1.384799
