19
Iteration:  3975charge 0 multiplicity 1
 O         0.422000         0.543071         0.727788
 C        -0.776805         0.974862         0.129422
 C        -0.666524         1.548531        -1.337762
 C        -1.932632         2.314856        -0.815020
 C        -2.948469         2.656529        -2.102886
 O        -3.410738         1.276545        -2.062947
 C        -2.977847         1.159356        -0.572397
 C        -2.045328        -0.054108         0.026251
 C        -1.330471         2.451309         0.619750
 H         0.818112         1.359394         1.071455
 H         0.217229         2.128881        -1.368639
 H        -0.835419         0.839669        -2.189341
 H        -3.786618         3.462462        -1.904245
 H        -2.428282         2.878204        -3.056272
 H        -3.816842         1.543156         0.134702
 H        -2.460095        -0.354920         0.932947
 H        -1.798566        -0.746724        -0.690331
 H        -0.526740         3.254286         0.834531
 H        -2.038387         2.493707         1.448216
