19
Iteration:   940
 O         0.373561         0.349584         0.748515
 C        -0.716253         1.049087         0.109075
 C        -0.702776         1.609798        -1.303665
 C        -2.005527         2.266013        -0.875733
 C        -2.956403         2.752776        -1.945910
 O        -3.391959         1.228979        -2.041363
 C        -2.959194         1.147575        -0.620639
 C        -1.929777         0.059228        -0.024057
 C        -1.363863         2.491190         0.513363
 H         0.669238         0.792382         1.549640
 H         0.099249         2.285621        -1.544962
 H        -0.792738         1.099273        -2.251521
 H        -3.879741         3.385372        -1.721780
 H        -2.433874         3.198162        -2.766564
 H        -3.886556         1.440913         0.177582
 H        -2.223215        -0.485829         0.850051
 H        -1.577377        -0.704143        -0.643579
 H        -0.731291         3.333662         0.629049
 H        -1.956202         2.474262         1.394590
