19
Iteration:  4555charge 0 multiplicity 1
 O         0.393593         0.538161         0.800373
 C        -0.779284         1.029011         0.131001
 C        -0.647299         1.573151        -1.224674
 C        -1.955344         2.246190        -0.885929
 C        -2.984179         2.719493        -1.900131
 O        -3.384773         1.337503        -2.135749
 C        -2.919757         1.111968        -0.745722
 C        -1.943146        -0.059145        -0.128036
 C        -1.435843         2.391404         0.691116
 H         0.992564         1.356212         0.866137
 H         0.230113         2.267897        -1.464392
 H        -0.875971         0.828740        -1.978555
 H        -3.875996         3.223320        -1.585240
 H        -2.520258         3.117859        -2.805606
 H        -3.797470         1.313825        -0.047761
 H        -2.485213        -0.464532         0.826482
 H        -1.522296        -0.929397        -0.644149
 H        -0.590480         3.219823         0.809310
 H        -2.329428         2.502567         1.356243
