19
Iteration:  3511
 O         0.502759         0.567665         0.732349
 C        -0.744970         0.961792         0.150117
 C        -0.757016         1.556932        -1.272863
 C        -2.111967         2.236117        -0.792875
 C        -2.772202         2.719131        -1.991184
 O        -3.455906         1.276979        -2.072379
 C        -2.996935         1.137646        -0.651834
 C        -1.983634         0.048761         0.006699
 C        -1.377372         2.520665         0.500932
 H         0.340843        -0.306972         1.029066
 H         0.071904         2.242172        -1.325750
 H        -0.810012         0.781878        -2.069886
 H        -3.517985         3.409332        -1.804861
 H        -2.065578         2.932734        -2.758253
 H        -3.981325         1.128480        -0.017714
 H        -2.427074        -0.206293         0.951787
 H        -1.708470        -0.877028        -0.660830
 H        -0.407013         3.194793         0.486341
 H        -1.929167         2.616133         1.440971
