19
Iteration:  2171
 O         0.326652         0.469047         0.778183
 C        -0.769392         1.025433         0.114847
 C        -0.608146         1.545887        -1.362329
 C        -1.947601         2.329799        -0.937942
 C        -2.965034         2.612667        -1.992020
 O        -3.533978         1.268048        -1.907297
 C        -2.895098         1.211753        -0.597479
 C        -1.946310         0.107460        -0.085375
 C        -1.249918         2.423810         0.499863
 H         0.018877         0.103909         1.582922
 H         0.043206         2.377285        -1.466422
 H        -0.674717         0.889829        -2.205742
 H        -3.672423         3.454570        -1.651888
 H        -2.507259         2.855054        -2.938464
 H        -3.774359         1.399536         0.153092
 H        -2.163193        -0.357355         0.870992
 H        -1.643618        -0.615507        -0.885219
 H        -0.345325         3.034235         0.786997
 H        -2.001146         2.577999         1.363816
