19
Iteration:  3836charge 0 multiplicity 1
 O         0.424223         0.471576         0.786366
 C        -0.756954         0.997940         0.177357
 C        -0.651275         1.602963        -1.310491
 C        -1.973287         2.277635        -0.878332
 C        -2.952775         2.650864        -1.957438
 O        -3.394332         1.213612        -2.054463
 C        -2.952846         1.137149        -0.607384
 C        -2.023182         0.149349         0.027764
 C        -1.353526         2.540663         0.428623
 H         0.207842        -0.449083         0.815136
 H         0.171941         2.342670        -1.253352
 H        -0.569107         0.803924        -2.085094
 H        -3.762216         3.183219        -1.547352
 H        -2.620818         3.116554        -2.955992
 H        -3.725226         1.360021         0.055815
 H        -2.586750        -0.321063         0.956426
 H        -1.759643        -0.672981        -0.760667
 H        -0.533576         3.327607         0.404574
 H        -1.943372         2.663956         1.320484
