19
Iteration:  1196charge 0 multiplicity 1
 O         0.306942         0.331982         0.784220
 C        -0.712739         1.108817         0.159025
 C        -0.652372         1.698739        -1.284655
 C        -1.997660         2.328201        -0.903537
 C        -3.004381         2.618332        -1.955361
 O        -3.428886         1.281552        -2.027799
 C        -2.873257         1.133753        -0.599313
 C        -1.896546         0.059215        -0.156271
 C        -1.325035         2.525868         0.531791
 H        -0.110943        -0.268284         1.451901
 H         0.093767         2.511947        -1.368574
 H        -0.606217         0.905765        -2.024034
 H        -3.822234         3.243980        -1.557512
 H        -2.523586         2.971616        -2.894409
 H        -3.688758         1.162769         0.123778
 H        -2.288958        -0.675312         0.794759
 H        -1.479796        -0.695091        -0.828727
 H        -0.664085         3.390092         0.536857
 H        -2.025291         2.558151         1.380391
