19
Iteration:  3599
 O         0.263367         0.409220         0.891496
 C        -0.726140         1.066591         0.144768
 C        -0.570041         1.516105        -1.275934
 C        -1.983698         2.250612        -0.910018
 C        -3.000894         2.623297        -1.992317
 O        -3.554701         1.284446        -1.963934
 C        -2.890274         1.107942        -0.662606
 C        -1.927672         0.113628        -0.089175
 C        -1.286825         2.582021         0.470857
 H         1.124374         0.644573         0.611277
 H         0.264794         2.182424        -1.631091
 H        -0.772623         0.645245        -1.953253
 H        -3.530740         3.563985        -1.723817
 H        -2.429461         2.774544        -2.894794
 H        -3.618550         1.402316         0.089671
 H        -2.467116        -0.449113         0.675558
 H        -1.656634        -0.599538        -0.933273
 H        -0.440331         3.345390         0.493375
 H        -1.811970         2.858717         1.428537
