19
Iteration:     8charge 0 multiplicity 1
 O         0.453960         0.453091         0.745542
 C        -0.675747         1.026284         0.146847
 C        -0.656042         1.608771        -1.239875
 C        -1.992468         2.333798        -0.804012
 C        -3.021262         2.743771        -1.917852
 O        -3.420215         1.248310        -2.056098
 C        -2.908740         1.062349        -0.727126
 C        -1.963806         0.050712        -0.180800
 C        -1.435494         2.448771         0.571942
 H         0.306650         0.284205         1.736963
 H         0.107615         2.403817        -1.366301
 H        -0.646648         1.010493        -2.154073
 H        -3.952704         3.229092        -1.442994
 H        -2.619259         3.149567        -2.837904
 H        -3.649038         1.139968         0.118134
 H        -2.250668        -0.475154         0.796134
 H        -1.676419        -0.655367        -0.992328
 H        -0.789021         3.301151         0.719256
 H        -2.135157         2.688094         1.416199
