19
Iteration:  4143charge 0 multiplicity 1
 O         0.263772         0.430520         0.767582
 C        -0.734553         1.025094         0.103979
 C        -0.712766         1.679219        -1.312432
 C        -1.985259         2.347567        -0.780066
 C        -2.959042         2.651417        -1.970497
 O        -3.321907         1.183295        -2.034316
 C        -2.927155         1.146132        -0.640070
 C        -1.977623         0.024562        -0.085503
 C        -1.349377         2.454493         0.578071
 H         0.996677         1.055472         0.739800
 H         0.207790         2.313064        -1.261035
 H        -0.683010         1.043845        -2.174388
 H        -3.772771         3.422061        -1.847211
 H        -2.582419         2.979018        -2.990883
 H        -3.728648         1.421983         0.049107
 H        -2.222690        -0.513463         0.819597
 H        -1.661821        -0.630620        -0.820058
 H        -0.469284         3.156678         0.700189
 H        -2.022785         2.574294         1.553777
