19
Iteration:  4636
 O         0.245514         0.319517         0.813799
 C        -0.749456         1.017485         0.062331
 C        -0.491621         1.717839        -1.215365
 C        -1.977280         2.334490        -0.854447
 C        -3.073984         2.614610        -1.930961
 O        -3.307483         1.216847        -2.058868
 C        -2.852780         1.129616        -0.619936
 C        -1.920674         0.071455        -0.162553
 C        -1.478404         2.559861         0.572730
 H         1.112655         0.801124         0.878798
 H         0.203008         2.460651        -1.239762
 H        -0.566707         1.166770        -2.145149
 H        -3.875719         3.114935        -1.377860
 H        -3.122614         3.112534        -2.918753
 H        -3.812681         1.268384        -0.079754
 H        -2.295297        -0.369169         0.734327
 H        -1.835911        -0.724264        -1.045882
 H        -0.734132         3.233823         0.701659
 H        -2.161100         2.594309         1.414069
