19
Iteration:  1065charge 0 multiplicity 1
 O         0.357097         0.405014         0.773984
 C        -0.749728         1.033696         0.106297
 C        -0.563566         1.654573        -1.403732
 C        -1.935557         2.264124        -0.902239
 C        -2.945868         2.727013        -1.960103
 O        -3.440832         1.177339        -1.921302
 C        -2.909647         1.188077        -0.637895
 C        -1.967344         0.098060        -0.116971
 C        -1.430455         2.474424         0.567598
 H         0.152962         0.055705         1.602720
 H         0.221524         2.411018        -1.362192
 H        -0.565526         0.980945        -2.266300
 H        -3.900209         3.108265        -1.530177
 H        -2.680481         3.051180        -3.005705
 H        -3.741127         1.582183         0.198699
 H        -2.193951        -0.238747         0.836016
 H        -1.761613        -0.468703        -0.980776
 H        -0.553068         3.073145         0.904190
 H        -2.222387         2.438323         1.343024
