19
Iteration:  4068charge 0 multiplicity 1
 O         0.366738         0.559765         0.866136
 C        -0.725466         1.046032         0.097154
 C        -0.608191         1.517992        -1.328673
 C        -2.009464         2.277250        -0.868238
 C        -2.999104         2.718883        -1.846251
 O        -3.434174         1.262503        -2.049881
 C        -2.898677         1.114224        -0.650786
 C        -1.907114         0.001440        -0.135309
 C        -1.330352         2.487420         0.421456
 H        -0.128773         0.067284         1.574566
 H         0.228300         2.242995        -1.339887
 H        -0.823309         0.869207        -2.132942
 H        -3.918725         3.268963        -1.295037
 H        -2.581005         3.160633        -2.804836
 H        -3.793505         1.262535         0.119141
 H        -2.372057        -0.424973         0.775143
 H        -1.677734        -0.743454        -0.911500
 H        -0.632380         3.268924         0.642774
 H        -2.086973         2.510421         1.256567
