19
Iteration:  3482
 O         0.360940         0.443951         0.680784
 C        -0.770913         1.024234         0.098909
 C        -0.627141         1.650658        -1.318276
 C        -1.970109         2.355473        -0.849778
 C        -3.012682         2.592274        -2.028432
 O        -3.361135         1.213997        -2.031001
 C        -2.859564         1.256568        -0.639595
 C        -2.017369         0.089415         0.026821
 C        -1.352652         2.425731         0.598914
 H         0.165656         0.204889         1.609488
 H         0.398501         2.068863        -1.402945
 H        -0.783545         0.971884        -2.130111
 H        -3.957349         3.200471        -1.711466
 H        -2.458606         2.933627        -2.915818
 H        -3.714628         1.490270        -0.042350
 H        -2.510824        -0.385938         0.979853
 H        -1.781007        -0.722087        -0.638875
 H        -0.694112         3.202382         0.869443
 H        -1.943908         2.372531         1.535447
