19
Iteration:  1216
 O         0.343374         0.519053         0.825112
 C        -0.744528         0.960305         0.085976
 C        -0.589006         1.593476        -1.304278
 C        -1.925257         2.330479        -0.888085
 C        -3.042886         2.781392        -1.923846
 O        -3.434784         1.264200        -2.014635
 C        -2.907254         1.092038        -0.744252
 C        -1.921905         0.055042        -0.094076
 C        -1.379898         2.448163         0.585630
 H         0.120926        -0.088281         1.477389
 H         0.325111         2.217064        -1.455141
 H        -0.734205         0.907790        -2.193286
 H        -3.951562         3.271905        -1.549449
 H        -2.775574         3.158199        -2.938620
 H        -3.594730         1.244739         0.046330
 H        -2.313055        -0.478337         0.855063
 H        -1.624832        -0.832644        -0.659571
 H        -0.380672         3.014433         0.663440
 H        -2.091358         2.523319         1.399295
