19
Iteration:   256charge 0 multiplicity 1
 O         0.364583         0.483342         0.823917
 C        -0.701659         1.023267         0.145613
 C        -0.675035         1.792204        -1.310072
 C        -1.985219         2.354725        -0.760937
 C        -3.067644         2.705423        -1.774037
 O        -3.292921         1.242519        -2.142309
 C        -2.908442         1.050034        -0.697204
 C        -1.919529        -0.013155        -0.279090
 C        -1.434873         2.412427         0.645345
 H        -0.024664        -0.425380         1.082670
 H         0.189804         2.526268        -1.580861
 H        -0.524805         1.066698        -2.180561
 H        -4.004210         3.202576        -1.479268
 H        -2.618088         3.212683        -2.711508
 H        -3.769133         1.104165         0.008828
 H        -2.224232        -0.770363         0.470622
 H        -1.561859        -0.582908        -1.115564
 H        -0.634088         3.197890         0.873653
 H        -2.272414         2.554581         1.313625
