19
Iteration:  4527charge 0 multiplicity 1
 O         0.271469         0.345321         0.876506
 C        -0.725970         1.001503         0.041106
 C        -0.630644         1.742265        -1.213444
 C        -1.997530         2.321590        -0.907348
 C        -3.070536         2.666814        -1.886180
 O        -3.307581         1.203159        -2.132832
 C        -2.883681         1.167427        -0.676267
 C        -1.911237         0.067080        -0.073206
 C        -1.400223         2.447396         0.578910
 H         1.083384         0.910464         0.716366
 H         0.171924         2.437305        -1.205529
 H        -0.592578         1.237084        -2.201128
 H        -4.018784         3.118692        -1.468146
 H        -2.754261         3.201547        -2.823072
 H        -3.714953         1.327150         0.018737
 H        -2.241986        -0.399177         0.840441
 H        -1.719707        -0.656887        -0.907979
 H        -0.673292         3.149505         0.621474
 H        -2.137546         2.513839         1.368930
