19
Iteration:  3313charge 0 multiplicity 1
 O         0.350116         0.462093         0.719857
 C        -0.798706         0.967014         0.097719
 C        -0.728902         1.594786        -1.274591
 C        -1.951853         2.362766        -0.816840
 C        -3.005483         2.712328        -1.980247
 O        -3.299655         1.244804        -2.090837
 C        -2.920678         1.137279        -0.664048
 C        -1.975205         0.043017        -0.005803
 C        -1.365545         2.419664         0.630116
 H         0.946237         1.261843         0.927399
 H         0.153649         2.156698        -1.228960
 H        -0.815780         0.934182        -2.123695
 H        -3.908007         3.423932        -1.702196
 H        -2.616640         3.191143        -2.912093
 H        -3.793600         1.224811        -0.109083
 H        -2.330534        -0.414671         0.924035
 H        -1.700293        -0.886339        -0.689945
 H        -0.414193         2.977857         0.711967
 H        -1.984859         2.567227         1.520090
