19
Iteration:  2803
 O         0.557008         0.509928         0.711581
 C        -0.752902         0.970897         0.121736
 C        -0.751784         1.562137        -1.322967
 C        -2.005640         2.299932        -0.832534
 C        -2.874581         2.659108        -2.055028
 O        -3.464167         1.343035        -2.045145
 C        -2.978417         1.177455        -0.593830
 C        -2.002906         0.071751         0.012140
 C        -1.383154         2.418636         0.568708
 H         0.317622        -0.245136         1.295324
 H         0.118107         2.147235        -1.400051
 H        -0.863120         0.779130        -2.025466
 H        -3.643014         3.411495        -1.994525
 H        -2.481528         2.765381        -3.074018
 H        -3.686786         1.472031         0.166310
 H        -2.364215        -0.092068         1.135954
 H        -1.851358        -0.869284        -0.666305
 H        -0.611626         3.199710         0.912276
 H        -2.034924         2.466432         1.423676
