19
Iteration:  3850charge 0 multiplicity 1
 O         0.423409         0.522907         0.748564
 C        -0.743396         1.078497         0.188492
 C        -0.708535         1.531308        -1.253074
 C        -1.979301         2.245283        -0.877045
 C        -2.875934         2.622971        -2.050927
 O        -3.501444         1.301995        -2.035202
 C        -2.945225         1.101539        -0.661623
 C        -1.985844         0.064636        -0.008060
 C        -1.325514         2.553879         0.593673
 H         0.403051        -0.480587         0.896743
 H         0.154682         2.283016        -1.597466
 H        -0.825702         0.885959        -2.152256
 H        -3.656850         3.392467        -1.863563
 H        -2.325453         2.696600        -3.038478
 H        -3.861784         1.386172        -0.018277
 H        -2.319724        -0.342507         1.015603
 H        -1.601706        -0.858550        -0.649839
 H        -0.542673         3.290600         0.609801
 H        -2.024377         2.771994         1.430289
