19
Iteration:  3702
 O         0.217189         0.358397         0.837086
 C        -0.794643         1.034648         0.126310
 C        -0.674339         1.586719        -1.362898
 C        -1.903369         2.296745        -0.927803
 C        -2.952529         2.693302        -1.987267
 O        -3.403842         1.192320        -1.974258
 C        -2.886874         1.090133        -0.656920
 C        -2.020163         0.137633         0.008992
 C        -1.253569         2.606763         0.507240
 H         1.085750         0.827809         0.875704
 H         0.015357         2.407853        -1.510099
 H        -0.536530         0.832806        -2.198850
 H        -3.723832         3.223494        -1.495848
 H        -2.694104         3.122244        -2.944016
 H        -3.825152         1.157837         0.010659
 H        -2.216790        -0.419016         1.086098
 H        -1.656849        -0.696812        -0.627212
 H        -0.366755         3.193385         0.300870
 H        -1.890053         2.774669         1.429323
