19
Iteration:  3686
 O         0.239908         0.303533         0.771104
 C        -0.735378         1.082465         0.147208
 C        -0.679218         1.529168        -1.274489
 C        -2.016705         2.318905        -0.846064
 C        -3.022978         2.645871        -1.927776
 O        -3.315900         1.260031        -2.072666
 C        -2.943126         1.098966        -0.611062
 C        -1.936916         0.044372         0.031771
 C        -1.253183         2.670842         0.401237
 H         0.799998         0.906578         1.236242
 H         0.288206         2.022683        -1.566141
 H        -0.828483         0.873057        -2.134113
 H        -3.923448         3.377502        -1.649069
 H        -2.607964         3.094243        -2.888851
 H        -3.712822         1.400655         0.047470
 H        -2.431305        -0.223265         0.886252
 H        -1.656633        -0.886033        -0.468457
 H        -0.368066         3.351787         0.280415
 H        -1.909338         2.962730         1.252142
