19
Iteration:  4204charge 0 multiplicity 1
 O         0.345937         0.591484         0.872764
 C        -0.761369         1.019580         0.076467
 C        -0.628836         1.537067        -1.291588
 C        -1.975268         2.299960        -0.825724
 C        -3.001738         2.740018        -1.935670
 O        -3.384034         1.349756        -2.056730
 C        -2.904997         1.065965        -0.698644
 C        -1.979698        -0.031540        -0.106746
 C        -1.361804         2.356732         0.540297
 H         1.202973         0.856030         0.480077
 H         0.224510         2.241090        -1.273909
 H        -0.695428         0.749408        -2.108081
 H        -3.831962         3.398555        -1.455754
 H        -2.614784         2.967557        -2.924926
 H        -3.851243         1.323503        -0.071894
 H        -2.559220        -0.177498         0.849019
 H        -1.787099        -1.101845        -0.540723
 H        -0.619613         3.088855         0.853870
 H        -2.107256         2.339204         1.257169
