19
Iteration:  4152charge 0 multiplicity 1
 O         0.268252         0.389162         0.811900
 C        -0.800867         1.008199         0.060263
 C        -0.631765         1.636952        -1.266307
 C        -2.050402         2.321107        -0.786637
 C        -3.024794         2.708559        -1.957622
 O        -3.314467         1.204906        -2.055181
 C        -2.897910         1.105841        -0.670329
 C        -1.896485         0.076609        -0.075564
 C        -1.343221         2.521539         0.598888
 H         1.086428         0.846638         0.622188
 H         0.153967         2.399838        -1.479886
 H        -0.761968         1.041221        -2.173836
 H        -3.907955         3.163739        -1.611127
 H        -2.531687         2.990269        -2.909673
 H        -3.781539         1.279147        -0.138512
 H        -2.249386        -0.391693         0.850627
 H        -1.760039        -0.711331        -0.778973
 H        -0.409414         3.073628         0.391493
 H        -1.970546         2.844692         1.514546
