19
Iteration:  2310
 O         0.494817         0.466461         0.701933
 C        -0.740172         0.959901         0.082605
 C        -0.667851         1.610948        -1.342986
 C        -1.973714         2.257534        -0.895844
 C        -2.900214         2.691451        -2.032019
 O        -3.494670         1.292093        -1.937986
 C        -2.931068         1.184039        -0.590774
 C        -2.046260         0.084871         0.055388
 C        -1.375780         2.437118         0.496399
 H         0.374978        -0.104371         1.490282
 H         0.151625         2.398084        -1.518103
 H        -0.828619         0.799362        -2.173959
 H        -3.654925         3.477034        -1.901753
 H        -2.026094         2.974210        -2.753710
 H        -3.731217         1.424078         0.081930
 H        -2.421776        -0.069580         1.108532
 H        -2.048808        -0.861486        -0.487290
 H        -0.645816         3.157594         0.601118
 H        -2.161133         2.552761         1.273263
