19
Iteration:  4946
 O         0.424565         0.587462         0.830441
 C        -0.854768         1.020058         0.155569
 C        -0.691458         1.533297        -1.235273
 C        -1.991313         2.245144        -0.798049
 C        -2.926511         2.738495        -1.948936
 O        -3.415199         1.326478        -2.074477
 C        -2.885140         1.104354        -0.695679
 C        -1.945526        -0.001753        -0.207997
 C        -1.430266         2.340566         0.587374
 H         1.043878         1.333035         0.774037
 H         0.061010         2.300356        -1.431328
 H        -0.707085         0.801591        -2.014142
 H        -3.612253         3.484353        -1.644335
 H        -2.264072         3.049865        -2.768373
 H        -3.808338         1.183252        -0.123073
 H        -2.402264        -0.475573         0.827662
 H        -1.591254        -0.806656        -0.864286
 H        -0.507697         2.918717         0.869340
 H        -2.278549         2.420050         1.217717
