19
Iteration:  1760charge 0 multiplicity 1
 O         0.440640         0.522845         0.891926
 C        -0.714591         0.938845         0.124839
 C        -0.681203         1.514431        -1.431468
 C        -1.978159         2.255340        -0.892869
 C        -3.054736         2.794327        -1.897524
 O        -3.380075         1.340226        -2.086984
 C        -2.913799         1.111761        -0.694487
 C        -1.992143         0.058600         0.081968
 C        -1.323788         2.443318         0.489305
 H         0.409574        -0.464807         1.172535
 H        -0.006384         2.363547        -1.630510
 H        -0.809357         0.868038        -2.281158
 H        -4.009347         3.251143        -1.521193
 H        -2.727805         3.393068        -2.788332
 H        -3.904531         1.398360        -0.026762
 H        -2.412841        -0.216281         0.943942
 H        -1.902220        -0.898071        -0.457804
 H        -0.328693         3.143551         0.239552
 H        -1.980853         2.551828         1.335950
