19
Iteration:  3885
 O         0.449076         0.694142         0.829028
 C        -0.713960         0.934007         0.092219
 C        -0.676297         1.564862        -1.343160
 C        -1.908761         2.223803        -0.886497
 C        -2.851926         2.590835        -2.024570
 O        -3.502974         1.342439        -1.972694
 C        -2.967098         1.165311        -0.620828
 C        -2.070967         0.030051        -0.053702
 C        -1.352531         2.393101         0.539699
 H         0.205877        -0.139128         1.357205
 H         0.118025         2.388178        -1.410180
 H        -0.726983         0.896755        -2.222490
 H        -3.594899         3.513682        -1.938201
 H        -2.562302         2.632439        -3.059811
 H        -3.699883         1.570927         0.216968
 H        -2.347075        -0.359015         0.910157
 H        -1.945090        -0.823595        -0.782455
 H        -0.521254         3.053004         0.713373
 H        -2.174717         2.460758         1.298699
