19
Iteration:  4816charge 0 multiplicity 1
 O         0.435733         0.555003         0.807033
 C        -0.750149         0.973773         0.151187
 C        -0.674598         1.564407        -1.246902
 C        -1.997469         2.219909        -0.849582
 C        -2.916497         2.829415        -1.967190
 O        -3.442191         1.332300        -2.108974
 C        -2.871880         1.079106        -0.721747
 C        -1.899582        -0.044989        -0.093532
 C        -1.546980         2.374432         0.617305
 H         1.064097         1.243886         0.886531
 H        -0.053137         2.514902        -1.421512
 H        -0.621242         0.708625        -1.941237
 H        -3.779147         3.587082        -1.908868
 H        -2.346260         3.060729        -2.911039
 H        -3.873932         1.240340        -0.090803
 H        -2.462523        -0.309931         0.882228
 H        -1.669568        -1.008226        -0.499417
 H        -0.729737         3.115187         0.884632
 H        -2.152191         2.289832         1.494217
