19
Iteration:   520
 O         0.292668         0.353336         0.832003
 C        -0.709926         1.069589         0.130261
 C        -0.695304         1.722961        -1.292808
 C        -2.077718         2.301265        -0.752095
 C        -3.049698         2.815937        -1.956502
 O        -3.404224         1.271876        -2.125761
 C        -2.847417         1.093969        -0.677459
 C        -1.803900        -0.025488        -0.164531
 C        -1.396072         2.384395         0.620584
 H         1.129551         0.900741         1.033355
 H         0.085611         2.506761        -1.301558
 H        -0.807918         1.036123        -2.188547
 H        -3.907123         3.336991        -1.593457
 H        -2.569689         3.223938        -2.861910
 H        -3.725493         1.176293         0.021283
 H        -2.144494        -0.594972         0.689580
 H        -1.366763        -0.705676        -0.898146
 H        -0.678377         3.158359         0.529290
 H        -1.889648         2.195998         1.601496
