19
Iteration:  2368
 O         0.426479         0.391100         0.810375
 C        -0.715599         0.929767         0.125318
 C        -0.646931         1.545683        -1.376932
 C        -1.962340         2.260834        -0.942713
 C        -3.004163         2.697797        -1.980327
 O        -3.467215         1.340123        -1.918652
 C        -2.927942         1.153933        -0.601315
 C        -2.015188        -0.008249        -0.022093
 C        -1.319865         2.616772         0.428374
 H         0.141115         0.537667         1.758647
 H         0.185697         2.328369        -1.567996
 H        -0.589164         0.823695        -2.242250
 H        -3.720416         3.400397        -1.405374
 H        -2.677169         3.308474        -2.868736
 H        -3.718806         1.415186         0.015970
 H        -2.396306        -0.543644         0.896719
 H        -1.669118        -0.880831        -0.775461
 H        -0.387145         3.232579         0.420978
 H        -2.024286         2.909095         1.157100
