19
Iteration:   332charge 0 multiplicity 1
 O         0.477483         0.627653         0.672307
 C        -0.819296         0.971301         0.177765
 C        -0.684617         1.602330        -1.264370
 C        -2.064520         2.312476        -0.781701
 C        -2.970056         2.745386        -1.960120
 O        -3.313910         1.344441        -2.106882
 C        -2.888653         1.098427        -0.663594
 C        -1.945314        -0.064266        -0.255329
 C        -1.495561         2.298370         0.781886
 H         0.312340         0.641338         1.584419
 H         0.129977         2.460010        -1.259720
 H        -0.733214         0.982276        -2.240583
 H        -3.865430         3.307871        -1.653769
 H        -2.202192         3.115150        -2.805755
 H        -3.749179         1.200881         0.046486
 H        -2.246959        -0.657891         0.654387
 H        -1.706193        -0.553296        -1.181558
 H        -0.554921         2.861282         1.104000
 H        -2.194198         2.120573         1.504341
