19
Iteration:  1696
 O         0.358794         0.464067         0.823424
 C        -0.708455         1.010024         0.107999
 C        -0.547171         1.616057        -1.297157
 C        -1.943418         2.280507        -0.904694
 C        -2.929098         2.588382        -2.063810
 O        -3.547282         1.298256        -1.885733
 C        -2.961409         1.173652        -0.603773
 C        -1.999373         0.108957        -0.150839
 C        -1.344768         2.501341         0.544989
 H         0.284625        -0.490418         1.032099
 H         0.166868         2.410518        -1.289709
 H        -0.482709         0.989502        -2.145074
 H        -3.652794         3.387346        -1.857826
 H        -2.483225         2.778168        -3.061775
 H        -3.665793         1.308131         0.113115
 H        -2.375629        -0.566809         0.626448
 H        -1.758269        -0.608667        -0.975515
 H        -0.571666         3.248114         0.742919
 H        -1.858447         2.599747         1.446613
