19
Iteration:  4671
 O         0.312724         0.458703         0.832010
 C        -0.685668         1.005446         0.174239
 C        -0.671246         1.654592        -1.263015
 C        -2.071512         2.279956        -0.846278
 C        -2.984041         2.703140        -2.034851
 O        -3.380385         1.348551        -2.123139
 C        -2.908869         1.030284        -0.645456
 C        -1.880361         0.056209        -0.106726
 C        -1.425739         2.368514         0.612080
 H         1.122231         1.025811         0.944700
 H        -0.027482         2.488288        -1.498808
 H        -0.743591         1.029864        -2.169041
 H        -3.718186         3.375269        -1.538693
 H        -2.426566         3.182810        -2.853595
 H        -3.794598         1.034002         0.038364
 H        -2.269013        -0.438613         0.783112
 H        -1.469011        -0.799186        -0.711604
 H        -0.672804         3.144402         0.713909
 H        -2.007255         2.453938         1.489350
