19
Iteration:  1557
 O         0.196601         0.348757         0.818473
 C        -0.771466         1.000160         0.106822
 C        -0.597840         1.664133        -1.276059
 C        -1.913897         2.349314        -0.906909
 C        -3.003284         2.669051        -1.979567
 O        -3.444972         1.193454        -1.951132
 C        -2.869365         1.159016        -0.639312
 C        -1.951934         0.052306        -0.149957
 C        -1.293050         2.507354         0.577323
 H         1.041183         0.963752         0.747411
 H         0.268660         2.370783        -1.057684
 H        -0.479929         1.158045        -2.293014
 H        -3.871743         3.302360        -1.790086
 H        -2.624606         2.970223        -2.962535
 H        -3.691659         1.511422        -0.046583
 H        -2.312974        -0.519525         0.705170
 H        -1.671623        -0.652841        -0.921584
 H        -0.595100         3.233724         0.689844
 H        -1.900205         2.752915         1.489901
