19
Iteration:  4007charge 0 multiplicity 1
 O         0.372571         0.469175         0.756073
 C        -0.716474         1.089440         0.173780
 C        -0.625531         1.576151        -1.267597
 C        -2.031211         2.195737        -0.843637
 C        -2.879761         2.653624        -2.040386
 O        -3.454498         1.305528        -2.058812
 C        -3.012921         1.126440        -0.582566
 C        -1.933285         0.048261        -0.002707
 C        -1.424902         2.476168         0.548574
 H         1.062908         0.640646         0.040719
 H         0.201281         2.280318        -1.369402
 H        -0.605437         0.848089        -2.146863
 H        -3.514960         3.450829        -1.737407
 H        -2.418395         2.954078        -2.950431
 H        -3.827667         1.375733         0.011667
 H        -2.233295        -0.333164         0.983134
 H        -1.631579        -0.834552        -0.542589
 H        -0.681225         3.327804         0.622615
 H        -2.171388         2.497038         1.332919
