19
Iteration:  1271
 O         0.407994         0.541635         0.678093
 C        -0.745636         1.025814         0.187654
 C        -0.778033         1.551727        -1.218292
 C        -2.029539         2.251225        -0.816044
 C        -2.929922         2.718012        -1.980360
 O        -3.402707         1.406067        -2.092493
 C        -2.853386         1.032595        -0.703398
 C        -1.929644        -0.009172        -0.087654
 C        -1.389043         2.420955         0.600485
 H         0.412216         0.439960         1.628277
 H         0.014163         2.347028        -1.255476
 H        -0.888877         0.859452        -2.087329
 H        -3.763755         3.411388        -1.847440
 H        -2.328550         2.878330        -2.906649
 H        -3.645818         1.148092         0.092235
 H        -2.430943        -0.332392         0.796717
 H        -1.631385        -0.846108        -0.705922
 H        -0.551016         3.173278         0.815690
 H        -2.019372         2.463024         1.523298
