19
Iteration:  3776
 O         0.371377         0.568616         0.895566
 C        -0.743992         1.012936         0.145776
 C        -0.622300         1.478705        -1.372199
 C        -2.041898         2.182026        -0.848123
 C        -2.899946         2.751976        -2.007798
 O        -3.455133         1.318853        -2.012205
 C        -2.987866         1.099952        -0.582227
 C        -1.959663         0.030943        -0.077558
 C        -1.306678         2.560037         0.490384
 H         0.704958        -0.308957         0.723154
 H         0.184562         2.207404        -1.543090
 H        -0.467898         0.733807        -2.115484
 H        -3.865338         3.424067        -1.868137
 H        -2.597346         3.025194        -2.992458
 H        -3.865135         1.226013         0.043024
 H        -2.407988        -0.368916         0.803076
 H        -1.759088        -0.815608        -0.635482
 H        -0.449612         3.183103         0.324752
 H        -2.003575         2.697551         1.377560
