19
Iteration:  4640
 O         0.231812         0.335437         0.806154
 C        -0.723675         0.960261         0.097404
 C        -0.504892         1.709352        -1.248833
 C        -1.993559         2.366503        -0.854754
 C        -3.072607         2.607241        -1.912403
 O        -3.332061         1.191633        -2.075831
 C        -2.855242         1.099110        -0.638970
 C        -1.928910         0.084796        -0.170694
 C        -1.457142         2.578617         0.605847
 H         1.073848         0.758767         0.898521
 H         0.216543         2.613363        -1.282566
 H        -0.467006         1.233612        -2.267975
 H        -3.930589         3.176896        -1.367188
 H        -2.824053         3.249878        -2.819887
 H        -3.762956         1.282757        -0.058943
 H        -2.374142        -0.286053         0.763200
 H        -1.655986        -0.662346        -0.887651
 H        -0.588975         3.327768         0.690719
 H        -2.264942         2.582369         1.336662
