19
Iteration:  4267
 O         0.249359         0.299577         0.775453
 C        -0.756394         1.051449         0.128429
 C        -0.577933         1.784247        -1.238396
 C        -1.977178         2.344477        -0.917580
 C        -3.009566         2.654038        -2.023658
 O        -3.470159         1.229238        -2.031396
 C        -2.833644         1.117294        -0.636190
 C        -1.894372         0.027170        -0.055791
 C        -1.403455         2.487405         0.581353
 H         1.014727         0.749960         1.092793
 H         0.213269         2.456847        -1.307927
 H        -0.443508         1.269115        -2.203760
 H        -3.793576         3.408975        -1.669241
 H        -2.578918         2.847635        -2.978728
 H        -3.516545         1.242397         0.163956
 H        -2.207550        -0.310321         0.924739
 H        -1.558366        -0.852384        -0.655899
 H        -0.568018         3.211337         0.628619
 H        -2.221018         2.508431         1.262179
