19
Iteration:  1775charge 0 multiplicity 1
 O         0.366895         0.486469         0.823976
 C        -0.760459         0.995645         0.130016
 C        -0.729382         1.556983        -1.335464
 C        -1.962049         2.350316        -0.876817
 C        -3.097958         2.713380        -1.906985
 O        -3.312102         1.277628        -2.071499
 C        -2.888626         1.115886        -0.663855
 C        -2.010817         0.064126        -0.002292
 C        -1.240399         2.491848         0.474985
 H         0.164626        -0.460105         0.731950
 H         0.234891         2.001615        -1.508952
 H        -0.837287         0.785595        -2.109255
 H        -3.829896         3.273696        -1.302769
 H        -2.782963         3.107221        -2.901002
 H        -3.731927         1.311241        -0.052690
 H        -2.487984        -0.008221         1.040545
 H        -1.644643        -0.819445        -0.523485
 H        -0.407177         3.144070         0.536390
 H        -1.885874         2.581405         1.433743
