19
Iteration:  3471charge 0 multiplicity 1
 O         0.358411         0.381447         0.710238
 C        -0.786068         0.985250         0.109319
 C        -0.624094         1.642410        -1.273680
 C        -1.872085         2.428717        -0.880540
 C        -3.046596         2.667343        -1.977150
 O        -3.358662         1.118877        -2.023540
 C        -2.873784         1.165664        -0.638156
 C        -2.037685         0.134802        -0.071562
 C        -1.359769         2.489950         0.575737
 H         0.338997         0.475980         1.720237
 H         0.204632         2.403230        -1.227149
 H        -0.571252         1.026303        -2.139667
 H        -3.953436         3.300488        -1.590455
 H        -2.873747         3.023287        -3.008574
 H        -3.592761         1.571698         0.023723
 H        -2.414978        -0.156856         0.993661
 H        -1.907181        -0.741931        -0.671504
 H        -0.454761         3.019328         0.677664
 H        -2.177791         2.490069         1.320160
