19
Iteration:   180
 O         0.360179         0.486311         0.822114
 C        -0.792709         1.010386         0.149070
 C        -0.599517         1.748054        -1.204056
 C        -2.039644         2.263861        -0.758712
 C        -2.994096         2.775963        -1.833855
 O        -3.384125         1.316510        -2.080286
 C        -2.920579         0.973377        -0.716499
 C        -1.861273        -0.021494        -0.262174
 C        -1.502621         2.416312         0.554685
 H         0.967789         0.572165         0.115051
 H         0.217936         2.573779        -1.236991
 H        -0.586928         1.034543        -2.104001
 H        -3.900341         3.350195        -1.684953
 H        -2.430792         3.210484        -2.692820
 H        -3.671365         0.943485         0.081405
 H        -2.101427        -0.704196         0.567504
 H        -1.455544        -0.666429        -1.023933
 H        -0.545604         3.075362         0.720675
 H        -2.204842         2.363488         1.474234
