19
Iteration:  1263charge 0 multiplicity 1
 O         0.484812         0.599714         0.698118
 C        -0.796625         1.047230         0.194603
 C        -0.714813         1.498446        -1.222394
 C        -2.016051         2.280930        -0.779170
 C        -2.885270         2.778084        -1.938836
 O        -3.445383         1.356610        -2.106122
 C        -2.963319         1.047552        -0.709951
 C        -1.921029        -0.040226        -0.139006
 C        -1.385293         2.416854         0.567507
 H         0.338061         0.398152         1.669997
 H         0.165624         2.158851        -1.343356
 H        -0.711190         0.799481        -2.038181
 H        -3.675359         3.518103        -1.674627
 H        -2.345333         3.090657        -2.857814
 H        -3.762171         1.103662        -0.032994
 H        -2.493464        -0.478249         0.930626
 H        -1.806573        -1.035242        -0.574184
 H        -0.575586         3.063785         0.632072
 H        -2.185205         2.336580         1.355181
