19
Iteration:  3130charge 0 multiplicity 1
 O         0.373146         0.486524         0.817478
 C        -0.803856         0.999151         0.129296
 C        -0.691094         1.511791        -1.309002
 C        -1.994187         2.328738        -0.823791
 C        -3.014425         2.749914        -1.989722
 O        -3.361575         1.324537        -2.138215
 C        -2.897540         1.118160        -0.622348
 C        -2.030260        -0.033395         0.010709
 C        -1.287530         2.462412         0.573139
 H         1.188835         0.595736         0.314999
 H         0.211146         2.236176        -1.388788
 H        -0.780516         0.770903        -2.196920
 H        -3.905697         3.280998        -1.688346
 H        -2.527352         3.220535        -2.827743
 H        -3.689233         1.286505         0.024831
 H        -2.509101        -0.298888         0.880064
 H        -1.769096        -0.933082        -0.595053
 H        -0.405616         3.178379         0.828507
 H        -1.987532         2.638597         1.383250
