19
Iteration:  4433
 O         0.326120         0.517311         0.888954
 C        -0.751419         0.980307         0.127532
 C        -0.687233         1.606245        -1.318597
 C        -1.980485         2.245155        -0.860424
 C        -3.017753         2.751077        -1.931075
 O        -3.409828         1.394191        -2.125054
 C        -2.889426         0.978552        -0.767652
 C        -1.893141         0.007237        -0.081177
 C        -1.385097         2.408131         0.637424
 H         1.035407         1.211532         0.885778
 H         0.301636         2.098883        -1.418504
 H        -0.785485         0.833478        -2.152184
 H        -3.787511         3.380944        -1.411860
 H        -2.623138         3.195439        -2.834637
 H        -3.831000         1.280021        -0.244572
 H        -2.209970        -0.395290         0.947818
 H        -1.488136        -0.861549        -0.638935
 H        -0.463712         3.141443         0.783942
 H        -2.172315         2.403998         1.407855
