19
Iteration:  3324
 O         0.241164         0.389897         0.714793
 C        -0.807235         1.061658         0.139626
 C        -0.635949         1.685740        -1.303204
 C        -2.059360         2.327645        -0.809784
 C        -2.991933         2.697405        -1.951677
 O        -3.253521         1.222525        -2.062399
 C        -2.905122         1.126621        -0.638715
 C        -1.983891         0.044087        -0.011270
 C        -1.298960         2.411020         0.570226
 H         0.994371         0.978465         0.853209
 H         0.088002         2.417716        -1.477461
 H        -0.716824         1.050382        -2.179582
 H        -4.039981         3.085352        -1.645883
 H        -2.484823         3.087726        -2.843703
 H        -3.737625         1.391475        -0.058736
 H        -2.319971        -0.324081         0.955855
 H        -1.641352        -0.794079        -0.770448
 H        -0.559084         3.212038         0.477871
 H        -1.811300         2.433299         1.529367
