19
Iteration:     5charge 0 multiplicity 1
 O         0.432228         0.488288         0.729941
 C        -0.702365         1.022740         0.136875
 C        -0.658417         1.627684        -1.248324
 C        -1.993177         2.318199        -0.808820
 C        -3.014929         2.727618        -1.918189
 O        -3.404138         1.265862        -2.049630
 C        -2.909461         1.066581        -0.714832
 C        -1.956236         0.035760        -0.153317
 C        -1.426138         2.419871         0.575949
 H         0.260775         0.200508         1.657872
 H         0.118184         2.402230        -1.357389
 H        -0.640896         1.011080        -2.176365
 H        -3.879469         3.227970        -1.498375
 H        -2.584340         3.128023        -2.866776
 H        -3.669216         1.164179         0.101896
 H        -2.251854        -0.442876         0.769093
 H        -1.668305        -0.683655        -0.929220
 H        -0.704304         3.290847         0.761130
 H        -2.110083         2.607587         1.435256
