19
Iteration:  2728charge 0 multiplicity 1
 O         0.303782         0.400347         0.768658
 C        -0.688216         1.062106         0.155512
 C        -0.623403         1.548808        -1.289817
 C        -1.908511         2.340947        -0.908781
 C        -3.010771         2.644665        -1.955594
 O        -3.547067         1.282053        -1.974952
 C        -2.887927         1.174452        -0.653544
 C        -1.936592         0.121116        -0.097516
 C        -1.288581         2.395240         0.476852
 H         0.403856         0.719626         1.675352
 H         0.163237         2.261994        -1.411230
 H        -0.774175         0.829899        -2.061913
 H        -3.800050         3.291468        -1.591077
 H        -2.550466         2.985573        -2.957710
 H        -3.761304         1.454328         0.104265
 H        -2.310535        -0.269109         0.844871
 H        -1.679238        -0.751056        -0.750919
 H        -0.351704         3.133153         0.614991
 H        -1.935602         2.568141         1.325351
