19
Iteration:   763charge 0 multiplicity 1
 O         0.436726         0.508962         0.756808
 C        -0.708521         1.012802         0.161731
 C        -0.670646         1.619361        -1.266351
 C        -1.944162         2.252036        -0.851688
 C        -2.966669         2.735857        -1.989973
 O        -3.462603         1.275728        -2.028141
 C        -2.963911         1.120397        -0.665411
 C        -1.938118         0.070539        -0.109594
 C        -1.408957         2.384141         0.570988
 H         0.233496        -0.102222         1.502310
 H         0.107050         2.514887        -1.350379
 H        -0.622134         1.048521        -2.256446
 H        -3.772936         3.471502        -1.529023
 H        -2.795223         3.046422        -3.061134
 H        -3.822458         1.419847        -0.082996
 H        -2.265942        -0.560048         0.742247
 H        -1.578235        -0.622817        -0.834984
 H        -0.577577         3.179209         0.591308
 H        -1.890774         2.303704         1.642679
