19
Iteration:   716
 O         0.356516         0.391390         0.833264
 C        -0.744858         1.056927         0.133091
 C        -0.624944         1.647663        -1.355871
 C        -1.987134         2.239592        -0.889499
 C        -3.055259         2.790830        -1.906704
 O        -3.427477         1.246545        -2.043676
 C        -2.908785         1.066829        -0.653949
 C        -1.933032         0.044298        -0.142904
 C        -1.292292         2.436064         0.562822
 H         0.548835         1.054800         1.608483
 H         0.151204         2.373664        -1.375772
 H        -0.424204         0.971776        -2.178937
 H        -3.993916         3.345477        -1.418489
 H        -2.712255         3.449233        -2.820882
 H        -3.856843         1.183708        -0.054841
 H        -2.270661        -0.470559         0.705376
 H        -1.559155        -0.660547        -0.879319
 H        -0.644797         3.195459         0.768153
 H        -2.158910         2.547959         1.266749
