19
Iteration:  4121
 O         0.457998         0.468892         0.731369
 C        -0.732402         1.016028         0.086358
 C        -0.618078         1.628479        -1.284827
 C        -2.008574         2.273293        -0.838879
 C        -2.885547         2.631545        -2.078528
 O        -3.441168         1.279504        -1.951666
 C        -2.939559         1.175520        -0.641099
 C        -1.989064         0.074307        -0.089532
 C        -1.486383         2.352666         0.667519
 H         0.732031         1.275432         1.249032
 H         0.167978         2.397730        -1.466200
 H        -0.650429         0.992577        -2.149149
 H        -3.640744         3.489465        -2.006976
 H        -2.456800         2.817019        -3.117692
 H        -3.788655         1.385945         0.046843
 H        -2.385566        -0.371236         0.813693
 H        -1.922741        -0.645208        -0.822368
 H        -0.636565         3.014292         0.922754
 H        -2.382607         2.435009         1.425380
