19
Iteration:  3515
 O         0.507535         0.588860         0.735685
 C        -0.745260         0.956169         0.167655
 C        -0.732035         1.532709        -1.264333
 C        -2.096424         2.265561        -0.789710
 C        -2.775239         2.695106        -1.968785
 O        -3.464846         1.302496        -2.079527
 C        -3.008252         1.095529        -0.671467
 C        -1.986768         0.018391         0.012374
 C        -1.357193         2.534190         0.499616
 H         0.336009        -0.388750         0.964964
 H         0.110762         2.244930        -1.368013
 H        -0.907441         0.898171        -2.103255
 H        -3.609528         3.485145        -1.887271
 H        -2.060499         3.023361        -2.739586
 H        -3.919386         1.219671        -0.049548
 H        -2.497408        -0.323281         1.035503
 H        -1.782741        -0.801272        -0.638407
 H        -0.573767         3.193591         0.270841
 H        -1.975280         2.615854         1.412896
