19
Iteration:  3273charge 0 multiplicity 1
 O         0.372410         0.587742         0.821560
 C        -0.711233         1.012122         0.123180
 C        -0.610782         1.508949        -1.283443
 C        -2.012315         2.146503        -0.906821
 C        -2.834115         2.812963        -1.896788
 O        -3.546049         1.400513        -2.079510
 C        -2.989196         1.005003        -0.674930
 C        -1.958961         0.024462        -0.046178
 C        -1.389772         2.333236         0.520906
 H         1.054969         1.212490         0.885263
 H         0.158971         2.353129        -1.375879
 H        -0.426632         0.779643        -2.131074
 H        -3.538051         3.546385        -1.515055
 H        -2.459099         2.957890        -2.864163
 H        -3.832015         1.351202         0.078634
 H        -2.282938        -0.435906         0.842118
 H        -1.691926        -0.783816        -0.754678
 H        -0.681114         3.195391         0.797774
 H        -2.068781         2.484530         1.352355
