19
Iteration:  4957charge 0 multiplicity 1
 O         0.354603         0.575331         0.829410
 C        -0.752470         0.948381         0.138345
 C        -0.637592         1.611120        -1.307030
 C        -1.970822         2.238614        -0.867920
 C        -2.894957         2.757955        -1.923797
 O        -3.342514         1.325145        -2.070501
 C        -2.951526         1.049534        -0.643399
 C        -2.007798        -0.027520        -0.165789
 C        -1.462512         2.401443         0.609645
 H         0.969165         1.272832         0.715257
 H         0.277366         2.205049        -1.348677
 H        -0.747916         0.964205        -2.156448
 H        -3.793679         3.198952        -1.600306
 H        -2.602592         3.235791        -2.878315
 H        -3.684191         1.194292         0.161411
 H        -2.442173        -0.545070         0.851146
 H        -1.779710        -0.800365        -0.915353
 H        -0.812832         3.320689         0.667414
 H        -2.056943         2.383899         1.502385
