19
Iteration:    14
 O         0.520532         0.340309         0.803374
 C        -0.644962         1.027768         0.182732
 C        -0.627086         1.606036        -1.230321
 C        -2.011787         2.326958        -0.832961
 C        -3.063030         2.765736        -1.873837
 O        -3.463977         1.213448        -2.079445
 C        -2.907355         1.080376        -0.717194
 C        -1.945998         0.062102        -0.246934
 C        -1.466847         2.562977         0.581901
 H         0.425454         0.654310         1.759842
 H         0.117187         2.386629        -1.378312
 H        -0.687473         0.866182        -2.062738
 H        -3.909640         3.242305        -1.488289
 H        -2.795189         3.285775        -2.840329
 H        -3.776461         1.225895        -0.058555
 H        -2.303471        -0.526962         0.545986
 H        -1.633384        -0.621743        -1.025558
 H        -0.682302         3.408411         0.493830
 H        -2.260485         2.621909         1.329840
