19
Iteration:   934
 O         0.368962         0.377568         0.743246
 C        -0.738010         1.014447         0.098589
 C        -0.708684         1.609198        -1.326540
 C        -2.000917         2.295851        -0.844936
 C        -2.915778         2.725885        -1.932952
 O        -3.419316         1.247120        -2.012579
 C        -2.940203         1.133244        -0.617191
 C        -1.931021         0.124592        -0.034272
 C        -1.384656         2.441157         0.523003
 H         0.618628         0.939204         1.451949
 H         0.159676         2.325289        -1.359406
 H        -0.857015         1.041187        -2.284160
 H        -3.887557         3.223545        -1.876627
 H        -2.368211         3.071451        -2.869064
 H        -3.708920         1.373999        -0.025893
 H        -2.364804        -0.526782         0.781890
 H        -1.398951        -0.693037        -0.673755
 H        -0.525807         3.223384         0.555464
 H        -2.045358         2.482174         1.440775
