19
Iteration:  2964
 O         0.329386         0.344150         0.709867
 C        -0.782665         1.015236         0.089088
 C        -0.680783         1.756820        -1.272544
 C        -1.971464         2.374027        -0.862364
 C        -2.949321         2.600749        -2.028867
 O        -3.408480         1.204688        -2.019632
 C        -2.874234         1.178516        -0.559127
 C        -1.962635         0.069947        -0.033283
 C        -1.296406         2.516087         0.576614
 H        -0.144497        -0.357534         1.085346
 H        -0.063231         2.699737        -1.301483
 H        -0.659452         1.060940        -2.183672
 H        -3.800096         3.293026        -2.015263
 H        -2.430471         2.821181        -2.941817
 H        -3.724749         1.297170         0.105071
 H        -2.242895        -0.137739         0.905259
 H        -1.780431        -0.736326        -0.665203
 H        -0.479158         3.221831         0.713166
 H        -1.809723         2.512033         1.559455
