19
Iteration:  4892charge 0 multiplicity 1
 O         0.233452         0.350184         0.817073
 C        -0.761486         1.069337         0.093961
 C        -0.551272         1.753815        -1.279255
 C        -1.967279         2.280292        -0.837482
 C        -3.018110         2.664161        -1.966937
 O        -3.363432         1.196489        -2.044047
 C        -2.862284         1.107772        -0.676677
 C        -1.923044         0.075419        -0.128121
 C        -1.424292         2.460475         0.598113
 H         1.045410         0.940385         0.832634
 H         0.349045         2.370510        -1.070055
 H        -0.713123         1.244900        -2.219092
 H        -3.823130         3.212760        -1.477432
 H        -2.745549         3.243036        -2.860714
 H        -3.817607         1.391056        -0.107945
 H        -2.225792        -0.537381         0.877037
 H        -1.552624        -0.702300        -0.810380
 H        -0.831710         3.419183         0.647281
 H        -2.127974         2.319464         1.397458
