19
Iteration:   784charge 0 multiplicity 1
 O         0.499821         0.541824         0.733642
 C        -0.733339         0.997277         0.136307
 C        -0.642104         1.612625        -1.275996
 C        -2.034729         2.235565        -0.779144
 C        -2.924603         2.747014        -1.970540
 O        -3.502593         1.361819        -2.077254
 C        -2.952837         0.978711        -0.634791
 C        -1.960985        -0.002125        -0.078379
 C        -1.400770         2.511547         0.589245
 H         0.373522        -0.369310         0.919606
 H         0.258337         2.277948        -1.429398
 H        -0.550734         0.898488        -2.107998
 H        -3.794154         3.536250        -2.069550
 H        -2.237909         2.940288        -2.853501
 H        -3.832745         1.242425        -0.119478
 H        -2.398525        -0.208459         0.886846
 H        -1.681830        -0.855894        -0.626678
 H        -0.685070         3.208076         0.918354
 H        -2.225851         2.505629         1.360175
