19
Iteration:  1508
 O         0.363462         0.654534         0.889659
 C        -0.799970         0.957233         0.132980
 C        -0.640889         1.530258        -1.273198
 C        -1.947968         2.241958        -0.891394
 C        -2.930159         2.748971        -1.862478
 O        -3.501647         1.403735        -2.131072
 C        -2.879976         1.066355        -0.713716
 C        -1.934007         0.001532        -0.066843
 C        -1.366331         2.333847         0.530124
 H         0.774781        -0.000789         0.385536
 H         0.036242         2.329747        -1.510904
 H        -0.723060         0.764819        -2.017684
 H        -3.796314         3.328796        -1.508081
 H        -2.572266         3.259002        -2.771137
 H        -3.923005         1.149470        -0.148459
 H        -2.343998        -0.348574         0.961653
 H        -1.600682        -0.947360        -0.650754
 H        -0.414758         2.979251         0.680318
 H        -1.850649         2.595336         1.399354
