19
Iteration:  1581charge 0 multiplicity 1
 O         0.373869         0.352692         0.718280
 C        -0.724045         1.055165         0.142673
 C        -0.651096         1.631838        -1.272291
 C        -1.999446         2.272125        -0.864267
 C        -2.913071         2.636467        -2.025578
 O        -3.442066         1.305330        -2.004593
 C        -2.972105         1.166165        -0.618909
 C        -1.947900         0.090200        -0.060971
 C        -1.390199         2.422284         0.565335
 H         0.725048         0.882485         1.440607
 H         0.145056         2.400736        -1.431615
 H        -0.555276         0.836104        -2.132261
 H        -3.712092         3.409832        -1.889948
 H        -2.463318         2.934715        -2.972654
 H        -3.756576         1.495599        -0.073141
 H        -2.283120        -0.264609         0.835589
 H        -1.708194        -0.690069        -0.716116
 H        -0.671142         3.180752         0.875868
 H        -2.070573         2.581400         1.470917
