19
Iteration:  1501
 O         0.398108         0.687549         0.858392
 C        -0.756977         0.954916         0.173430
 C        -0.670760         1.545706        -1.285929
 C        -1.945409         2.260420        -0.884099
 C        -2.946235         2.774650        -1.904414
 O        -3.461313         1.419250        -2.120763
 C        -2.909713         1.010343        -0.709951
 C        -1.991220        -0.050481        -0.046759
 C        -1.360642         2.332385         0.543455
 H         0.811363        -0.107070         0.515790
 H         0.211675         2.295605        -1.317467
 H        -0.801081         0.866129        -2.176119
 H        -3.695910         3.401375        -1.388092
 H        -2.497543         3.197991        -2.826178
 H        -3.765941         1.169474        -0.120213
 H        -2.482880        -0.385877         0.944426
 H        -1.798185        -0.963169        -0.662716
 H        -0.515362         2.935822         0.418040
 H        -2.097016         2.551288         1.404507
