19
Iteration:    64
 O         0.280229         0.588139         0.941717
 C        -0.728047         1.044537         0.010584
 C        -0.601059         1.704392        -1.414435
 C        -1.945495         2.308433        -0.825758
 C        -2.963889         2.685815        -1.859758
 O        -3.459067         1.277248        -2.000622
 C        -2.892332         1.058470        -0.708124
 C        -1.912248         0.026508        -0.225934
 C        -1.435868         2.288072         0.661963
 H         1.062243         0.475460         0.433961
 H         0.170986         2.475925        -1.434404
 H        -0.730794         1.078006        -2.278909
 H        -3.827697         3.401166        -1.594992
 H        -2.605502         3.086957        -2.781663
 H        -3.668372         1.442445         0.027883
 H        -2.091532        -0.504514         0.762194
 H        -1.608130        -0.805938        -0.905170
 H        -0.635942         2.865306         0.880450
 H        -2.076325         1.843519         1.398537
