19
Iteration:   515
 O         0.295040         0.361404         0.839407
 C        -0.762339         1.050075         0.140949
 C        -0.688326         1.715596        -1.294655
 C        -2.035317         2.288264        -0.739717
 C        -3.086299         2.812224        -1.943202
 O        -3.383747         1.275794        -2.124922
 C        -2.825969         1.060771        -0.704023
 C        -1.824701         0.005863        -0.156131
 C        -1.379412         2.405471         0.647581
 H         1.138916         0.853151         0.782527
 H         0.023658         2.550054        -1.317269
 H        -0.749360         1.116302        -2.181792
 H        -4.098502         3.275467        -1.681087
 H        -2.650595         3.177381        -2.894856
 H        -3.710832         1.339657        -0.117328
 H        -2.143346        -0.758536         0.631503
 H        -1.423437        -0.660785        -0.950702
 H        -0.454690         3.144889         0.517022
 H        -1.902791         2.297052         1.595965
