19
Iteration:  2115charge 0 multiplicity 1
 O         0.406697         0.550644         0.613136
 C        -0.782988         1.063799         0.158295
 C        -0.646720         1.441379        -1.272344
 C        -1.963529         2.224714        -0.868749
 C        -2.958456         2.708863        -1.940156
 O        -3.391190         1.292087        -2.074442
 C        -2.953134         1.150270        -0.634958
 C        -2.074757         0.065606         0.084862
 C        -1.244908         2.497799         0.521574
 H         0.181937        -0.019796         1.408730
 H         0.154195         2.122882        -1.492853
 H        -0.876889         0.768325        -2.100103
 H        -3.811821         3.263816        -1.374089
 H        -2.570577         3.085677        -2.912572
 H        -3.885782         1.362913         0.059898
 H        -2.400972        -0.457791         1.026486
 H        -1.697806        -0.795356        -0.462728
 H        -0.448292         3.250224         0.438086
 H        -2.005487         2.705644         1.419051
