19
Iteration:  3707charge 0 multiplicity 1
 O         0.225664         0.388677         0.872030
 C        -0.750603         1.049988         0.112531
 C        -0.665684         1.582858        -1.356943
 C        -1.928477         2.291487        -0.934014
 C        -2.947411         2.647542        -1.988795
 O        -3.431547         1.185468        -1.985654
 C        -2.898832         1.154129        -0.639631
 C        -2.004823         0.139078         0.013949
 C        -1.270204         2.505626         0.519370
 H         1.101760         0.792712         0.662549
 H         0.122664         2.361565        -1.525038
 H        -0.509302         0.999032        -2.284581
 H        -3.706018         3.365844        -1.517419
 H        -2.646021         3.167758        -2.947580
 H        -3.729713         1.394155         0.091695
 H        -2.318605        -0.332782         0.858371
 H        -1.718874        -0.674727        -0.680140
 H        -0.372368         3.132429         0.366478
 H        -1.959057         2.742921         1.304349
