19
Iteration:  3233charge 0 multiplicity 1
 O         0.181692         0.304646         0.935659
 C        -0.738224         1.047135         0.152239
 C        -0.601988         1.647771        -1.343952
 C        -1.905202         2.306090        -0.931495
 C        -3.070131         2.729979        -1.972727
 O        -3.444358         1.155752        -1.934166
 C        -2.850368         1.184700        -0.612101
 C        -1.899910         0.118596        -0.230902
 C        -1.286064         2.503901         0.513734
 H         0.985352         0.927980         0.927989
 H         0.148831         2.446825        -1.590301
 H        -0.580056         0.940603        -2.173104
 H        -3.886663         3.301919        -1.472351
 H        -2.735434         3.119131        -3.006735
 H        -3.599795         1.355836         0.095504
 H        -2.252159        -0.555187         0.647190
 H        -1.674922        -0.435776        -1.095704
 H        -0.484327         3.209772         0.663549
 H        -2.115181         2.447829         1.312652
