19
Iteration:  1048
 O         0.389976         0.444592         0.722283
 C        -0.712167         0.997072         0.104990
 C        -0.577543         1.684885        -1.200722
 C        -1.937262         2.351439        -0.892104
 C        -2.967343         2.660314        -1.999751
 O        -3.543117         1.228937        -1.965856
 C        -2.910051         1.146728        -0.628315
 C        -1.953724         0.067542        -0.098110
 C        -1.382344         2.460058         0.525770
 H         0.044924        -0.175418         1.318720
 H         0.246036         2.453912        -1.200777
 H        -0.468415         0.999579        -2.063246
 H        -3.653785         3.493389        -1.824574
 H        -2.459770         2.771220        -2.950641
 H        -3.572516         1.340087         0.137698
 H        -2.423642        -0.422695         0.866298
 H        -1.762681        -0.816983        -0.842574
 H        -0.702262         3.279839         0.553926
 H        -2.125648         2.480223         1.380256
