19
Iteration:  2123charge 0 multiplicity 1
 O         0.342368         0.500670         0.645367
 C        -0.746595         1.113844         0.166267
 C        -0.642705         1.505169        -1.317552
 C        -1.958545         2.212376        -0.872136
 C        -3.018922         2.659683        -1.900621
 O        -3.372080         1.288589        -2.116587
 C        -2.965135         1.097663        -0.582190
 C        -2.039397         0.110910         0.073423
 C        -1.224990         2.492558         0.490787
 H         0.065899        -0.113889         1.401039
 H         0.322939         2.083496        -1.402634
 H        -0.692323         0.596452        -2.007382
 H        -3.746605         3.198426        -1.299743
 H        -2.706684         3.281239        -2.804559
 H        -3.830408         1.622307        -0.022667
 H        -2.388171        -0.308661         1.074200
 H        -1.772198        -0.627072        -0.655868
 H        -0.485267         3.186181         0.399052
 H        -1.746997         2.742923         1.373170
