19
Iteration:  2337charge 0 multiplicity 1
 O         0.429118         0.623325         0.662791
 C        -0.810394         0.985169         0.120560
 C        -0.634949         1.452400        -1.290276
 C        -1.919556         2.240731        -0.909556
 C        -2.879469         2.674422        -2.056713
 O        -3.578444         1.331590        -1.941109
 C        -2.990391         1.213525        -0.633012
 C        -1.997770         0.045622        -0.019838
 C        -1.259779         2.373323         0.619927
 H         0.314348         0.285957         1.559488
 H         0.183853         2.125148        -1.475100
 H        -0.691243         0.636671        -1.953327
 H        -3.624291         3.544942        -1.845332
 H        -2.378082         3.021707        -2.941984
 H        -3.771301         1.407717         0.106358
 H        -2.493280        -0.382649         0.860776
 H        -1.682963        -0.751377        -0.763210
 H        -0.275177         2.997953         0.692538
 H        -1.902036         2.612554         1.456011
