19
Iteration:   350charge 0 multiplicity 1
 O         0.420986         0.532846         0.752053
 C        -0.776656         0.984611         0.134725
 C        -0.685436         1.768556        -1.207454
 C        -2.048655         2.295034        -0.737054
 C        -2.925798         2.745012        -1.876593
 O        -3.396760         1.340873        -2.078178
 C        -2.927099         0.991339        -0.791624
 C        -1.897414        -0.038266        -0.249100
 C        -1.427615         2.371106         0.614995
 H         0.237601         0.313780         1.647199
 H         0.133611         2.385869        -1.384528
 H        -0.701970         1.000737        -1.960126
 H        -3.755840         3.383686        -1.580346
 H        -2.491517         3.069525        -2.819507
 H        -3.723774         1.010353        -0.032526
 H        -2.260491        -0.735143         0.536210
 H        -1.344259        -0.764416        -0.927273
 H        -0.696883         3.215869         0.752784
 H        -2.131628         2.331911         1.546313
