19
Iteration:   894
 O         0.435363         0.490607         0.856640
 C        -0.772482         0.961687         0.165033
 C        -0.631750         1.593052        -1.328978
 C        -1.973259         2.282037        -0.839856
 C        -2.948301         2.710264        -1.994620
 O        -3.528434         1.302608        -2.006075
 C        -2.921224         1.141252        -0.678459
 C        -1.992716         0.073199        -0.079468
 C        -1.373180         2.354634         0.531424
 H         1.209684         1.055765         0.521198
 H         0.234404         2.317329        -1.343164
 H        -0.367127         1.004725        -2.193311
 H        -3.637537         3.483418        -1.690095
 H        -2.520471         2.961088        -2.960608
 H        -3.764013         1.312850         0.154463
 H        -2.324184        -0.595543         0.703895
 H        -1.848397        -0.579237        -0.949989
 H        -0.660111         3.084469         0.722313
 H        -2.098253         2.460304         1.353192
