19
Iteration:  2962charge 0 multiplicity 1
 O         0.316011         0.363613         0.697194
 C        -0.768984         1.030231         0.074976
 C        -0.671861         1.750390        -1.260928
 C        -1.973612         2.359574        -0.861043
 C        -2.953975         2.589991        -2.026069
 O        -3.413433         1.213025        -2.015508
 C        -2.882552         1.173122        -0.574136
 C        -1.964709         0.066421        -0.036365
 C        -1.289787         2.512719         0.581405
 H        -0.170507        -0.370973         1.111445
 H        -0.048709         2.678057        -1.259392
 H        -0.691590         1.094858        -2.186534
 H        -3.738569         3.321012        -1.998869
 H        -2.364372         2.744887        -2.931612
 H        -3.662687         1.350379         0.093783
 H        -2.263981        -0.132246         0.987068
 H        -1.744726        -0.746110        -0.647026
 H        -0.429003         3.132994         0.738841
 H        -1.872953         2.504945         1.628004
