19
Iteration:   853
 O         0.271720         0.458126         0.893468
 C        -0.756213         1.015608         0.132592
 C        -0.663214         1.630514        -1.305988
 C        -1.943155         2.292873        -0.919532
 C        -3.091987         2.715143        -1.845869
 O        -3.402107         1.274229        -2.092191
 C        -2.869731         1.087771        -0.640443
 C        -1.925499         0.049565        -0.073629
 C        -1.286499         2.440956         0.489476
 H         0.920925         0.195524         0.287249
 H         0.133735         2.392319        -1.524336
 H        -0.664579         1.056888        -2.295174
 H        -4.009510         3.361735        -1.455049
 H        -2.658033         3.125778        -2.758500
 H        -3.681593         1.185269         0.035931
 H        -2.328385        -0.363632         0.868135
 H        -1.593173        -0.628299        -0.831947
 H        -0.329837         3.090876         0.627457
 H        -1.886180         2.668841         1.413284
