19
Iteration:  1824charge 0 multiplicity 1
 O         0.385298         0.463411         0.819528
 C        -0.713955         0.942466         0.092976
 C        -0.684924         1.620651        -1.280007
 C        -1.969378         2.353651        -0.842963
 C        -2.882828         2.619794        -2.127260
 O        -3.572235         1.354312        -1.953061
 C        -2.875569         1.152363        -0.633715
 C        -2.008974         0.030523         0.004250
 C        -1.343453         2.441573         0.583086
 H         0.980826         0.034674         0.163115
 H         0.141326         2.392481        -1.414277
 H        -0.719305         1.009509        -2.220091
 H        -3.749099         3.283816        -2.038424
 H        -2.344822         2.670397        -3.062998
 H        -3.615103         1.433206         0.073991
 H        -2.240425        -0.154911         1.055062
 H        -1.809640        -0.752962        -0.763915
 H        -0.430943         3.164459         0.724672
 H        -2.093584         2.500487         1.294637
