19
Iteration:  4635charge 0 multiplicity 1
 O         0.248235         0.315103         0.815792
 C        -0.753439         1.032452         0.057092
 C        -0.496136         1.718248        -1.209023
 C        -1.971384         2.326986        -0.854184
 C        -3.075201         2.619683        -1.935773
 O        -3.301628         1.222434        -2.054236
 C        -2.854274         1.136859        -0.619735
 C        -1.918534         0.066384        -0.163828
 C        -1.485246         2.549888         0.561572
 H         1.126306         0.824169         0.868905
 H         0.236356         2.461448        -1.223928
 H        -0.582115         1.139203        -2.114810
 H        -3.866913         3.094801        -1.381225
 H        -3.177052         3.071371        -2.937182
 H        -3.816727         1.268447        -0.073075
 H        -2.277042        -0.413361         0.752260
 H        -1.876596        -0.714796        -1.048727
 H        -0.720811         3.252690         0.712818
 H        -2.150696         2.595205         1.448312
