19
Iteration:  2917
 O         0.548528         0.571594         0.742722
 C        -0.750107         0.915671         0.210591
 C        -0.681706         1.500171        -1.307537
 C        -1.918439         2.225453        -0.824590
 C        -2.944340         2.729425        -1.976039
 O        -3.485162         1.406245        -2.029552
 C        -2.948347         1.094254        -0.696713
 C        -2.033079        -0.017056        -0.069013
 C        -1.394817         2.454038         0.522911
 H         0.381103         0.576546         1.730073
 H         0.273450         2.044941        -1.399708
 H        -0.837134         0.665531        -2.018183
 H        -3.716201         3.367583        -1.566938
 H        -2.769163         3.121477        -2.986077
 H        -3.713877         1.460034        -0.057569
 H        -2.486741        -0.499606         0.771934
 H        -1.788702        -0.650366        -0.875462
 H        -0.685362         3.277910         0.597790
 H        -2.226361         2.762536         1.295649
