19
Iteration:  1187charge 0 multiplicity 1
 O         0.353682         0.327123         0.771250
 C        -0.706609         1.048259         0.122542
 C        -0.614397         1.724674        -1.232450
 C        -1.990007         2.360031        -0.867935
 C        -2.929012         2.667676        -1.984512
 O        -3.420034         1.211080        -1.968271
 C        -3.028889         1.060855        -0.630610
 C        -1.918234         0.110548        -0.157495
 C        -1.344261         2.554062         0.517435
 H        -0.085128        -0.249794         1.469918
 H         0.130783         2.483397        -1.475797
 H        -0.443659         1.100285        -2.085169
 H        -3.828663         3.286770        -1.798360
 H        -2.647075         3.082311        -2.963916
 H        -3.887155         1.280274         0.255139
 H        -2.253076        -0.545055         0.801099
 H        -1.543316        -0.527109        -0.967651
 H        -0.527474         3.184079         0.568810
 H        -2.086545         2.572525         1.365722
