19
Iteration:  2875charge 0 multiplicity 1
 O         0.361029         0.429455         0.901903
 C        -0.694175         0.990336         0.081196
 C        -0.641193         1.557861        -1.441434
 C        -1.949589         2.303744        -0.930548
 C        -3.048009         2.705066        -1.864871
 O        -3.399187         1.317019        -2.036951
 C        -2.916024         1.122157        -0.623583
 C        -1.979989         0.040689        -0.050264
 C        -1.316144         2.448535         0.451529
 H         0.098973         0.631013         1.782779
 H         0.164660         2.358480        -1.602500
 H        -0.865540         1.061207        -2.457888
 H        -3.792124         3.356338        -1.331122
 H        -2.773179         3.271166        -2.739515
 H        -3.924447         1.253173        -0.017253
 H        -2.297632        -0.251452         0.883105
 H        -1.764512        -0.794632        -0.618739
 H        -0.522913         3.146012         0.552050
 H        -1.778732         2.593001         1.462354
