19
Iteration:   630
 O         0.368376         0.472379         0.808200
 C        -0.697448         1.056002         0.119738
 C        -0.650126         1.755908        -1.257484
 C        -2.045967         2.311061        -0.790279
 C        -3.089393         2.723630        -1.950387
 O        -3.353873         1.251466        -2.102082
 C        -2.859434         1.087077        -0.695206
 C        -1.975130        -0.004877        -0.094052
 C        -1.327694         2.420690         0.610417
 H         0.353596        -0.465018         0.458255
 H         0.198291         2.488643        -1.335489
 H        -0.744500         1.046033        -2.123906
 H        -3.944934         3.254482        -1.684576
 H        -2.557485         3.096484        -2.809430
 H        -3.700103         1.281202        -0.060888
 H        -2.289347        -0.488573         0.774033
 H        -1.765593        -0.828199        -0.743756
 H        -0.615691         3.200228         0.616731
 H        -2.033155         2.240193         1.521782
