19
Iteration:  3863
 O         0.429489         0.610791         0.769226
 C        -0.754779         1.045997         0.139987
 C        -0.713863         1.526730        -1.283291
 C        -2.010398         2.313015        -0.841519
 C        -2.819586         2.713607        -2.158199
 O        -3.548889         1.290445        -1.975845
 C        -2.954077         1.116361        -0.634933
 C        -1.927159         0.013394         0.019210
 C        -1.337886         2.421344         0.564839
 H         0.236073        -0.285719         0.986481
 H         0.192301         2.210859        -1.488908
 H        -0.784492         0.618831        -1.889998
 H        -3.567366         3.644268        -2.300050
 H        -2.202448         2.791761        -3.060036
 H        -3.766224         1.205464         0.257938
 H        -2.376315        -0.372771         0.909033
 H        -1.692363        -0.870524        -0.636661
 H        -0.504405         3.079633         0.626714
 H        -2.026833         2.359687         1.451491
