19
Iteration:    35
 O         0.345053         0.319568         0.868077
 C        -0.746982         1.023519         0.171139
 C        -0.556536         1.717946        -1.261050
 C        -1.960735         2.286307        -0.914921
 C        -3.137894         2.675831        -1.866876
 O        -3.467678         1.353631        -2.050467
 C        -2.879197         1.026939        -0.688574
 C        -1.849849        -0.035508        -0.183855
 C        -1.429029         2.546716         0.496920
 H         1.072519         0.993064         1.126216
 H         0.157271         2.542641        -1.168500
 H        -0.430953         1.091188        -2.158126
 H        -3.881964         3.214188        -1.296519
 H        -2.958150         3.224291        -2.834770
 H        -3.616320         1.244421         0.080044
 H        -2.094241        -0.708012         0.600002
 H        -1.457396        -0.615488        -1.023809
 H        -0.560244         3.279804         0.489642
 H        -2.165275         2.647137         1.292473
