19
Iteration:  3976charge 0 multiplicity 1
 O         0.427966         0.542527         0.723253
 C        -0.772759         0.974314         0.141442
 C        -0.666614         1.544718        -1.339685
 C        -1.939462         2.311307        -0.816728
 C        -2.948241         2.654340        -2.100693
 O        -3.414025         1.276175        -2.058229
 C        -2.970069         1.163845        -0.587168
 C        -2.048128        -0.058413         0.027841
 C        -1.334154         2.459418         0.626331
 H         0.809521         1.356948         1.019475
 H         0.227480         2.093295        -1.363006
 H        -0.845436         0.863615        -2.181037
 H        -3.788869         3.509310        -1.921810
 H        -2.390410         2.878714        -3.065424
 H        -3.849652         1.551766         0.131785
 H        -2.455096        -0.381255         0.934065
 H        -1.794497        -0.735855        -0.685445
 H        -0.531269         3.259651         0.853815
 H        -2.063845         2.497949         1.440250
