19
Iteration:  1669
 O         0.273021         0.400786         0.827317
 C        -0.687832         1.047234         0.080174
 C        -0.615800         1.653698        -1.331293
 C        -1.933533         2.313926        -0.941548
 C        -2.983023         2.670442        -2.001329
 O        -3.498827         1.251688        -1.963925
 C        -2.886650         1.146569        -0.641905
 C        -1.917934         0.120678        -0.015484
 C        -1.314969         2.465685         0.501210
 H         0.005151        -0.455448         1.145327
 H         0.202249         2.417663        -1.240179
 H        -0.702630         0.953629        -2.236730
 H        -3.830460         3.332247        -1.712171
 H        -2.593762         3.039039        -2.973930
 H        -3.749055         1.223611         0.171628
 H        -2.264093        -0.372924         0.869065
 H        -1.706351        -0.729018        -0.645394
 H        -0.444872         3.207363         0.677634
 H        -1.840380         2.523084         1.551516
