19
Iteration:  2818
 O         0.469940         0.511205         0.633923
 C        -0.725004         0.958434         0.134099
 C        -0.665124         1.604179        -1.277915
 C        -1.972345         2.279732        -0.881815
 C        -2.824104         2.659452        -2.079551
 O        -3.476630         1.283582        -1.904971
 C        -2.926495         1.152949        -0.603184
 C        -2.072095         0.057756         0.021047
 C        -1.424528         2.484127         0.579174
 H         0.296139        -0.309552         1.217718
 H         0.040219         2.478952        -1.348531
 H        -0.787213         1.054998        -2.285390
 H        -3.544178         3.464532        -1.946201
 H        -2.102068         2.783292        -2.934135
 H        -3.906152         1.439982         0.019592
 H        -2.482765        -0.359749         0.887232
 H        -1.886033        -0.764768        -0.650897
 H        -0.601808         3.247384         0.488894
 H        -2.211636         2.485824         1.408462
