19
Iteration:  4458charge 0 multiplicity 1
 O         0.435680         0.630699         0.809539
 C        -0.731635         0.942936         0.140873
 C        -0.634269         1.543078        -1.251874
 C        -1.979470         2.200830        -0.850345
 C        -2.914276         2.772589        -1.872837
 O        -3.396809         1.324480        -2.073384
 C        -2.916597         1.100106        -0.718539
 C        -2.087180        -0.034163        -0.154156
 C        -1.455771         2.344882         0.557951
 H         1.002139         1.471677         0.942360
 H         0.195894         2.296296        -1.035902
 H        -0.471983         1.057486        -2.178518
 H        -3.833891         3.363638        -1.525128
 H        -2.449506         3.104337        -2.901208
 H        -3.715888         1.659140        -0.136547
 H        -2.503186        -0.503785         0.887584
 H        -1.717740        -0.867952        -0.791037
 H        -0.883979         3.248068         0.738214
 H        -2.225701         2.035088         1.228558
