19
Iteration:  2029
 O         0.392771         0.349106         0.892351
 C        -0.747132         1.003586         0.091889
 C        -0.615959         1.501991        -1.389087
 C        -1.917182         2.301236        -1.008696
 C        -3.075722         2.743133        -1.894805
 O        -3.436599         1.254668        -1.949118
 C        -2.858825         1.145843        -0.565127
 C        -1.972327         0.086022        -0.088659
 C        -1.305337         2.635464         0.395687
 H        -0.113252        -0.118808         1.528991
 H         0.251591         2.121449        -1.435318
 H        -0.822672         0.815193        -2.193054
 H        -3.954891         3.160407        -1.334605
 H        -2.899166         3.133786        -2.875383
 H        -3.645510         1.337724         0.133226
 H        -2.362025        -0.239908         0.870596
 H        -1.681113        -0.635735        -0.856716
 H        -0.580691         3.452176         0.634324
 H        -2.184967         2.897405         1.161741
