19
Iteration:  4806charge 0 multiplicity 1
 O         0.434393         0.528870         0.803617
 C        -0.726581         1.025836         0.192748
 C        -0.658280         1.602585        -1.237835
 C        -1.988978         2.291508        -0.851550
 C        -2.923626         2.744959        -2.019252
 O        -3.434171         1.314624        -2.088090
 C        -2.921031         1.072085        -0.734167
 C        -1.969183        -0.067589        -0.100519
 C        -1.496399         2.369643         0.653386
 H         0.975156         1.294338         0.768962
 H         0.344884         2.167043        -1.421231
 H        -0.612894         0.902862        -2.122046
 H        -3.772053         3.402291        -1.572283
 H        -2.355467         3.213663        -2.857439
 H        -3.838292         1.289123         0.012852
 H        -2.282940        -0.497064         0.873647
 H        -1.731967        -0.743133        -0.869402
 H        -0.724969         3.167245         0.876501
 H        -2.410336         2.429388         1.249739
