19
Iteration:   920charge 0 multiplicity 1
 O         0.338055         0.482465         0.728015
 C        -0.786936         1.008668         0.119052
 C        -0.683523         1.642974        -1.302717
 C        -1.977162         2.317209        -0.817905
 C        -2.940291         2.627658        -2.022360
 O        -3.434291         1.311740        -1.969832
 C        -2.894048         1.116154        -0.657563
 C        -1.988065         0.018462        -0.113420
 C        -1.313013         2.385123         0.610502
 H         0.826005         1.196379         1.283515
 H         0.116245         2.323577        -1.518607
 H        -0.602405         0.887009        -2.096116
 H        -3.592914         3.531396        -1.723123
 H        -2.456153         2.811892        -2.994902
 H        -3.666984         1.183304         0.056635
 H        -2.312841        -0.270033         0.877489
 H        -1.977541        -0.796382        -0.790965
 H        -0.454132         3.104683         0.751724
 H        -1.961020         2.516156         1.455926
