19
Iteration:  1043
 O         0.394151         0.459076         0.711244
 C        -0.748320         1.009593         0.157265
 C        -0.591059         1.700151        -1.238392
 C        -1.937578         2.305299        -0.892629
 C        -2.971914         2.619215        -2.029471
 O        -3.530916         1.317082        -1.969568
 C        -2.937608         1.120245        -0.659414
 C        -1.947824         0.013120        -0.080156
 C        -1.353839         2.475375         0.556904
 H         0.237453        -0.324337         1.360511
 H         0.226655         2.421287        -1.098507
 H        -0.435417         1.001965        -2.071270
 H        -3.742208         3.435061        -1.838205
 H        -2.526003         2.603989        -3.073636
 H        -3.640703         1.249717         0.285539
 H        -2.358411        -0.267936         0.863758
 H        -1.660157        -0.688847        -0.861916
 H        -0.606278         3.324778         0.593270
 H        -2.064161         2.508385         1.421691
