19
Iteration:  2513charge 0 multiplicity 1
 O         0.255892         0.414689         0.804634
 C        -0.746268         1.095346         0.077840
 C        -0.603703         1.491971        -1.369121
 C        -1.956979         2.188229        -0.933718
 C        -3.040174         2.755018        -1.850560
 O        -3.423449         1.252327        -1.975606
 C        -2.896458         1.142540        -0.582246
 C        -2.017110         0.144595        -0.101354
 C        -1.211723         2.481499         0.440043
 H         0.388902         0.747670         1.710114
 H         0.202225         2.256598        -1.467524
 H        -0.456302         0.747304        -2.152357
 H        -3.722402         3.225787        -1.193722
 H        -2.860196         3.102829        -2.808534
 H        -3.711784         1.437224         0.164692
 H        -2.234043        -0.485058         0.849398
 H        -1.666507        -0.642054        -0.782242
 H        -0.318451         3.126480         0.253249
 H        -1.889264         2.810065         1.209086
