19
Iteration:  3568
 O         0.242268         0.482420         1.000862
 C        -0.702753         0.994500         0.044341
 C        -0.551475         1.626326        -1.462100
 C        -1.905159         2.278545        -0.985830
 C        -3.075555         2.630299        -1.924863
 O        -3.404614         1.266331        -1.944131
 C        -2.851840         1.163897        -0.614917
 C        -2.060643         0.068353        -0.051315
 C        -1.303853         2.486993         0.470746
 H         1.001622         0.067907         0.468158
 H         0.279089         2.309982        -1.704918
 H        -0.538870         0.927755        -2.257943
 H        -3.698515         3.335839        -1.451611
 H        -2.878495         3.012126        -2.870005
 H        -3.712388         1.568275         0.109662
 H        -2.526930        -0.301716         0.976920
 H        -1.971939        -0.889808        -0.637845
 H        -0.455417         3.173874         0.698418
 H        -2.100589         2.424395         1.277589
