19
Iteration:  2869charge 0 multiplicity 1
 O         0.391237         0.375003         0.897868
 C        -0.674353         1.033529         0.126032
 C        -0.660613         1.587790        -1.452193
 C        -1.943251         2.340916        -0.898617
 C        -3.069851         2.718770        -1.897342
 O        -3.406086         1.264795        -2.033210
 C        -2.922965         1.126370        -0.609361
 C        -1.994556         0.034935        -0.096804
 C        -1.315165         2.482886         0.438433
 H         0.099932         0.538494         1.811766
 H         0.088151         2.331885        -1.482448
 H        -0.826870         0.963667        -2.296850
 H        -3.802449         3.378656        -1.375278
 H        -2.770601         3.193804        -2.868983
 H        -3.743904         1.451867        -0.039542
 H        -2.427156        -0.152877         1.003192
 H        -1.737783        -0.905097        -0.757897
 H        -0.388469         3.126861         0.702036
 H        -1.891714         2.521838         1.363470
