19
Iteration:  4587charge 0 multiplicity 1
 O         0.378671         0.546001         0.867814
 C        -0.724297         1.000783         0.096435
 C        -0.694239         1.658906        -1.286058
 C        -2.056455         2.218648        -0.838509
 C        -2.890531         2.730923        -1.962488
 O        -3.402151         1.397212        -2.070895
 C        -3.030338         0.984641        -0.712378
 C        -1.906144        -0.055843        -0.114089
 C        -1.397311         2.329189         0.588812
 H         1.080123         1.158944         1.038627
 H         0.005372         2.601313        -1.484966
 H        -0.648328         0.933962        -2.129112
 H        -3.681370         3.497426        -1.932485
 H        -2.250729         3.080945        -2.792778
 H        -3.929373         1.246858        -0.100077
 H        -2.200212        -0.388642         0.967388
 H        -1.471762        -0.880940        -0.624560
 H        -0.735126         3.342821         0.734211
 H        -2.019654         2.497141         1.533111
