19
Iteration:  2998charge 0 multiplicity 1
 O         0.380461         0.469547         0.721116
 C        -0.783660         1.041301         0.151055
 C        -0.679482         1.505138        -1.275101
 C        -1.945944         2.322911        -0.865865
 C        -2.999438         2.694668        -1.893883
 O        -3.347810         1.282920        -2.101172
 C        -2.902685         1.144375        -0.621952
 C        -2.006833         0.086643        -0.058851
 C        -1.323544         2.504809         0.546054
 H         0.165861        -0.267663         1.298299
 H         0.144974         2.216171        -1.580543
 H        -0.573633         0.668904        -2.031074
 H        -3.891740         3.134741        -1.373317
 H        -2.703446         3.197440        -2.800121
 H        -3.810248         1.346516        -0.047800
 H        -2.360476        -0.296881         0.809116
 H        -1.892861        -0.786982        -0.667356
 H        -0.497391         3.266505         0.520663
 H        -2.010997         2.483979         1.391501
