19
Iteration:  4928charge 0 multiplicity 1
 O         0.408695         0.523856         0.838989
 C        -0.745014         0.975532         0.171481
 C        -0.667661         1.640341        -1.248041
 C        -1.987099         2.257862        -0.833592
 C        -2.897244         2.732639        -2.048707
 O        -3.499443         1.382453        -2.113794
 C        -2.958599         1.058559        -0.727515
 C        -1.901185        -0.053588        -0.082048
 C        -1.434673         2.388117         0.670750
 H         1.125694         1.189133         0.833501
 H         0.281022         2.208516        -1.356101
 H        -0.761360         0.989265        -2.168620
 H        -3.825632         3.373023        -1.810630
 H        -2.418641         2.975194        -2.992490
 H        -3.758667         1.089072         0.070937
 H        -2.298373        -0.574469         0.749932
 H        -1.521001        -0.697074        -0.866115
 H        -0.876663         3.296311         0.692457
 H        -2.014693         2.251143         1.638715
