19
Iteration:  4081charge 0 multiplicity 1
 O         0.390945         0.540959         0.811223
 C        -0.738478         1.005518         0.157694
 C        -0.636568         1.600884        -1.307768
 C        -1.930818         2.189822        -0.896593
 C        -2.975081         2.724022        -1.926715
 O        -3.475147         1.344027        -2.011411
 C        -2.935066         1.006386        -0.708840
 C        -1.945228         0.036165        -0.110433
 C        -1.405110         2.484594         0.523513
 H         0.301824         0.354801         1.764405
 H         0.105328         2.391978        -1.575130
 H        -0.405845         0.815985        -2.077053
 H        -3.778166         3.463418        -1.535899
 H        -2.662480         3.132385        -2.885818
 H        -3.752966         1.285567         0.058508
 H        -2.218051        -0.477793         0.860094
 H        -1.505908        -0.915614        -0.688045
 H        -0.580156         3.140147         0.320169
 H        -1.975217         2.676582         1.409185
