19
Iteration:   103charge 0 multiplicity 1
 O         0.473717         0.611094         0.642349
 C        -0.811018         1.080396         0.206872
 C        -0.634859         1.662586        -1.190942
 C        -2.032769         2.272984        -0.732736
 C        -2.946913         2.696869        -1.854661
 O        -3.399696         1.316454        -2.154161
 C        -2.959484         0.987904        -0.797951
 C        -1.941389        -0.048180        -0.162924
 C        -1.439003         2.422177         0.694175
 H         0.366722        -0.316128         0.950936
 H         0.195312         2.394115        -1.078383
 H        -0.687797         0.926674        -2.062810
 H        -3.791055         3.299405        -1.565960
 H        -2.389086         3.109679        -2.743199
 H        -3.808208         0.881369        -0.111849
 H        -2.353616        -0.569526         0.708736
 H        -1.522057        -0.768131        -0.855611
 H        -0.548794         3.236166         0.581176
 H        -2.072268         2.672413         1.638368
