19
Iteration:  1600
 O         0.509455         0.462688         0.723566
 C        -0.763261         0.927123         0.121727
 C        -0.698112         1.584227        -1.328636
 C        -2.030999         2.298237        -0.797022
 C        -2.864973         2.790985        -2.026940
 O        -3.444381         1.315649        -2.081968
 C        -2.911204         1.067258        -0.651021
 C        -2.037260         0.049418         0.050074
 C        -1.391638         2.444367         0.530295
 H         0.425912         0.820610         1.683001
 H         0.150080         2.297250        -1.422333
 H        -0.949875         0.869015        -2.125585
 H        -3.570449         3.557040        -1.713695
 H        -2.383462         3.046513        -2.988285
 H        -3.836423         1.323743         0.100681
 H        -2.479899        -0.378579         1.018126
 H        -1.855283        -0.908509        -0.492620
 H        -0.712775         3.227355         0.665081
 H        -2.066807         2.344790         1.440077
