19
Iteration:    52
 O         0.170592         0.496436         0.858882
 C        -0.758533         1.039893         0.039211
 C        -0.556881         1.723534        -1.296370
 C        -1.962735         2.264426        -0.871156
 C        -3.017222         2.778056        -1.832056
 O        -3.488622         1.217388        -1.980593
 C        -2.812632         1.064347        -0.736544
 C        -1.827546         0.021383        -0.210459
 C        -1.391502         2.352883         0.555537
 H         1.131845         0.758315         0.635964
 H         0.244813         2.470115        -1.368696
 H        -0.444960         1.064988        -2.160109
 H        -3.841062         3.351202        -1.290659
 H        -2.634177         3.124680        -2.762205
 H        -3.551713         1.120446         0.126336
 H        -2.305818        -0.319160         0.757916
 H        -1.470436        -0.811903        -0.846032
 H        -0.703073         3.120137         0.830655
 H        -2.036938         2.356531         1.466983
