19
Iteration:   993
 O         0.443003         0.598662         0.748706
 C        -0.731872         0.987746         0.066641
 C        -0.665611         1.524159        -1.366492
 C        -1.952230         2.261519        -0.873815
 C        -2.961750         2.752662        -1.921777
 O        -3.361343         1.294507        -2.035359
 C        -2.953433         1.103394        -0.615970
 C        -2.057730         0.021815        -0.019062
 C        -1.363662         2.398728         0.559680
 H         0.095945         0.290353         1.589365
 H         0.045882         2.369218        -1.590156
 H        -0.759081         0.812276        -2.206794
 H        -3.787094         3.278027        -1.476360
 H        -2.605175         3.188757        -2.854567
 H        -3.725155         1.239589         0.133126
 H        -2.547908        -0.293386         0.926730
 H        -1.795613        -0.732252        -0.797649
 H        -0.509968         2.992436         0.723850
 H        -2.087055         2.561207         1.403460
