19
Iteration:  2771charge 0 multiplicity 1
 O         0.402825         0.484695         0.742149
 C        -0.834531         0.982430         0.104558
 C        -0.681227         1.546640        -1.322432
 C        -1.970753         2.266828        -0.881058
 C        -2.986910         2.716244        -1.850713
 O        -3.378076         1.292159        -2.058564
 C        -2.915430         1.104143        -0.653971
 C        -2.028645         0.077478        -0.028559
 C        -1.246651         2.504033         0.483977
 H         0.117181         0.275107         1.622754
 H         0.212657         2.127861        -1.435890
 H        -0.720341         0.741646        -2.006326
 H        -3.810263         3.206844        -1.395646
 H        -2.720478         3.105973        -2.851746
 H        -3.743109         1.545849         0.012109
 H        -2.393516        -0.244106         1.005871
 H        -1.777475        -0.915033        -0.552220
 H        -0.378030         3.245267         0.271224
 H        -1.822338         2.702245         1.384025
