19
Iteration:   463charge 0 multiplicity 1
 O         0.425164         0.522434         0.798252
 C        -0.790195         1.024027         0.160297
 C        -0.697933         1.715384        -1.271666
 C        -1.992001         2.320486        -0.796518
 C        -2.991054         2.730294        -1.927684
 O        -3.377248         1.379498        -2.142638
 C        -2.898537         1.029613        -0.693900
 C        -1.883377        -0.017878        -0.118897
 C        -1.476302         2.266961         0.648228
 H         1.021800         0.176507         0.145831
 H         0.186588         2.418244        -1.296146
 H        -0.620005         1.056331        -2.170097
 H        -3.755699         3.389824        -1.590098
 H        -2.637334         3.248000        -2.918164
 H        -3.867287         1.044829        -0.166678
 H        -2.443489        -0.321152         0.844951
 H        -1.510478        -0.938634        -0.602156
 H        -0.727120         3.056133         1.090097
 H        -2.272866         2.212241         1.396337
