19
Iteration:  1761
 O         0.440433         0.513378         0.891160
 C        -0.724530         0.952786         0.124297
 C        -0.682842         1.510227        -1.435033
 C        -1.980243         2.260375        -0.885817
 C        -3.058904         2.795689        -1.899523
 O        -3.370361         1.340409        -2.078580
 C        -2.904706         1.108269        -0.701064
 C        -1.994013         0.059836         0.080476
 C        -1.320185         2.442629         0.488327
 H         0.416254        -0.463506         1.155077
 H         0.002028         2.327833        -1.591695
 H        -0.828906         0.903761        -2.277366
 H        -4.023803         3.224662        -1.549573
 H        -2.788253         3.380957        -2.824869
 H        -3.860046         1.374474        -0.043421
 H        -2.397486        -0.224634         0.938057
 H        -1.933483        -0.898012        -0.440958
 H        -0.343928         3.141444         0.256501
 H        -1.982293         2.613596         1.339766
