19
Iteration:  1668charge 0 multiplicity 1
 O         0.277370         0.397437         0.830318
 C        -0.691451         1.041138         0.080508
 C        -0.621895         1.652811        -1.337148
 C        -1.940151         2.309763        -0.940517
 C        -2.982787         2.670704        -2.000456
 O        -3.490300         1.257846        -1.963679
 C        -2.880355         1.148587        -0.646299
 C        -1.919957         0.119996        -0.015740
 C        -1.313722         2.477440         0.504176
 H         0.051329        -0.435657         1.161888
 H         0.199476         2.410531        -1.244341
 H        -0.713182         0.958578        -2.253863
 H        -3.822798         3.320158        -1.684573
 H        -2.630742         3.025882        -2.993093
 H        -3.753830         1.221240         0.176028
 H        -2.308521        -0.383956         0.903578
 H        -1.688340        -0.737447        -0.649057
 H        -0.461494         3.179895         0.650383
 H        -1.874429         2.509140         1.551446
