19
Iteration:   809charge 0 multiplicity 1
 O         0.410509         0.597164         0.741507
 C        -0.817174         0.999398         0.151702
 C        -0.770262         1.641742        -1.266762
 C        -2.002139         2.271938        -0.840701
 C        -2.893469         2.679137        -1.959619
 O        -3.393533         1.318785        -2.063332
 C        -2.906997         1.130350        -0.641600
 C        -1.918855         0.011362        -0.025043
 C        -1.365949         2.317945         0.553952
 H         0.470062        -0.295957         0.503442
 H         0.186255         2.290161        -1.419129
 H        -0.744071         0.880300        -2.150302
 H        -3.790563         3.325891        -1.596991
 H        -2.517252         3.133991        -2.875475
 H        -3.733079         1.509552        -0.082080
 H        -2.364647        -0.362705         0.936867
 H        -1.664799        -0.785509        -0.749187
 H        -0.500829         3.111885         0.734701
 H        -2.125919         2.515009         1.406739
