19
Iteration:  2832
 O         0.374278         0.474845         0.606511
 C        -0.819824         1.061573         0.120533
 C        -0.617241         1.624127        -1.227788
 C        -1.944208         2.292447        -0.834312
 C        -2.873395         2.612997        -2.032822
 O        -3.478333         1.264080        -1.980378
 C        -2.980746         1.151315        -0.559596
 C        -2.002027         0.055170        -0.044376
 C        -1.309163         2.511565         0.536628
 H         0.224436        -0.149200         1.281241
 H         0.314201         2.283663        -1.239895
 H        -0.315560         0.803148        -1.993425
 H        -3.729158         3.397793        -1.933827
 H        -2.475558         2.709119        -3.035761
 H        -3.690031         1.423733         0.295576
 H        -2.283710        -0.379085         0.895065
 H        -1.811703        -0.758362        -0.694584
 H        -0.500866         3.131836         0.811874
 H        -2.123834         2.603650         1.311173
