19
Iteration:   435charge 0 multiplicity 1
 O         0.444162         0.597516         0.834461
 C        -0.754193         1.007446         0.165912
 C        -0.712639         1.727674        -1.290164
 C        -2.075043         2.237813        -0.731323
 C        -2.909293         2.755382        -1.897834
 O        -3.418327         1.347948        -2.155107
 C        -2.970506         0.991905        -0.681707
 C        -1.912935        -0.009540        -0.215289
 C        -1.375299         2.305348         0.654338
 H         0.661804        -0.367954         0.621385
 H        -0.019013         2.540546        -1.279742
 H        -0.555899         1.086933        -2.153655
 H        -3.712013         3.594993        -1.880332
 H        -2.354185         3.113048        -2.702752
 H        -3.908997         0.944386        -0.092367
 H        -2.369272        -0.532819         0.566024
 H        -1.486378        -0.608268        -1.018034
 H        -0.705205         3.056480         0.717662
 H        -2.058466         2.453853         1.530294
