19
Iteration:  1326charge 0 multiplicity 1
 O         0.348655         0.435728         0.699670
 C        -0.791023         1.047470         0.170404
 C        -0.598605         1.706963        -1.258774
 C        -1.930466         2.402872        -0.884713
 C        -3.066892         2.715984        -1.970451
 O        -3.362118         1.220507        -2.078626
 C        -2.858782         1.087495        -0.644325
 C        -1.947705        -0.017779        -0.058273
 C        -1.404969         2.447903         0.603898
 H         0.201724        -0.267271         1.432683
 H         0.409107         2.245607        -1.275597
 H        -0.630246         1.125791        -2.207260
 H        -3.966185         3.269080        -1.669166
 H        -2.951945         3.099766        -3.006134
 H        -3.762706         1.516513         0.042197
 H        -2.247812        -0.377256         0.857073
 H        -1.652754        -0.771972        -0.732927
 H        -0.457848         3.014275         0.865870
 H        -2.153403         2.550601         1.477461
