19
Iteration:  1124
 O         0.489598         0.585472         0.719636
 C        -0.696460         1.037840         0.114837
 C        -0.718753         1.487894        -1.277925
 C        -2.011385         2.204735        -0.788654
 C        -2.898859         2.714217        -1.894657
 O        -3.383472         1.407417        -2.162222
 C        -2.960529         1.059528        -0.683083
 C        -2.053677         0.015166         0.019956
 C        -1.393093         2.421432         0.509623
 H         0.290374         0.450623         1.729436
 H         0.040561         2.270851        -1.544497
 H        -0.789943         0.689653        -2.054452
 H        -3.801618         3.291781        -1.518198
 H        -2.453577         3.281759        -2.716791
 H        -3.753838         1.322234        -0.013914
 H        -2.402613        -0.453396         0.910282
 H        -1.912937        -0.914813        -0.578718
 H        -0.656908         3.211427         0.628817
 H        -2.069373         2.274574         1.447838
