19
Iteration:  4743
 O         0.268072         0.334734         0.891606
 C        -0.737193         1.087726         0.155228
 C        -0.668278         1.717677        -1.312810
 C        -2.020189         2.261892        -0.874460
 C        -3.002860         2.725866        -1.913634
 O        -3.395906         1.240655        -2.099967
 C        -2.833526         1.052395        -0.733680
 C        -1.864340         0.107201        -0.141110
 C        -1.368620         2.431282         0.609669
 H         1.092604         0.755361         1.133327
 H        -0.016915         2.587441        -1.494718
 H        -0.561648         0.999055        -2.138382
 H        -3.943342         3.093948        -1.488902
 H        -2.747515         3.171202        -2.863634
 H        -3.638858         1.302824        -0.071453
 H        -2.266270        -0.281168         0.751976
 H        -1.605599        -0.771279        -0.772676
 H        -0.724210         3.328878         0.670809
 H        -2.217424         2.584039         1.358565
