19
Iteration:  1103
 O         0.438537         0.537212         0.778951
 C        -0.789325         0.947029         0.195824
 C        -0.695583         1.538168        -1.354610
 C        -1.998880         2.250372        -0.837118
 C        -3.006494         2.824371        -1.869718
 O        -3.373804         1.287911        -2.126679
 C        -3.000427         1.033869        -0.719698
 C        -1.972853         0.031557        -0.064879
 C        -1.260464         2.470483         0.555349
 H         0.330404         0.542168         1.756838
 H         0.096923         2.313225        -1.463679
 H        -0.681260         0.784927        -2.174686
 H        -3.878802         3.379574        -1.475437
 H        -2.600047         3.314067        -2.749177
 H        -3.806476         1.198478        -0.129951
 H        -2.537833        -0.339064         0.884841
 H        -1.664581        -0.971857        -0.562045
 H        -0.458139         3.180360         0.307230
 H        -1.757037         2.838394         1.521572
