19
Iteration:  4735charge 0 multiplicity 1
 O         0.301842         0.388912         0.855898
 C        -0.720311         1.077926         0.144414
 C        -0.595075         1.695493        -1.275232
 C        -1.968560         2.290385        -0.853123
 C        -3.007578         2.795227        -1.908310
 O        -3.400228         1.218513        -2.114242
 C        -2.907010         1.049418        -0.702315
 C        -1.913150         0.061598        -0.116023
 C        -1.420731         2.407108         0.576714
 H         0.977131         0.987374         1.142680
 H         0.205395         2.328285        -1.459038
 H        -0.668494         0.959651        -2.076239
 H        -3.939117         3.175085        -1.575831
 H        -2.756726         3.208250        -2.870781
 H        -3.848849         1.202540        -0.097894
 H        -2.395676        -0.358650         0.759569
 H        -1.404362        -0.710638        -0.824652
 H        -0.703615         3.163065         0.542665
 H        -2.116520         2.388837         1.421225
