19
Iteration:  4062charge 0 multiplicity 1
 O         0.328306         0.570392         0.893645
 C        -0.691528         1.059817         0.063756
 C        -0.642788         1.523445        -1.370262
 C        -1.988096         2.319810        -0.842187
 C        -3.079042         2.715716        -1.882354
 O        -3.394783         1.237422        -2.054377
 C        -2.841350         1.115401        -0.626937
 C        -1.959752         0.053145        -0.093755
 C        -1.314619         2.467760         0.459788
 H        -0.133020        -0.167166         1.421655
 H         0.275787         2.124193        -1.429720
 H        -0.740426         0.752007        -2.244349
 H        -3.770913         3.172927        -1.307737
 H        -2.791973         3.154172        -2.792133
 H        -3.636262         1.284908        -0.014978
 H        -2.370652        -0.688817         0.641439
 H        -1.671830        -0.607026        -1.010682
 H        -0.414376         3.087027         0.817832
 H        -2.085288         2.505229         1.214574
