19
Iteration:  1101
 O         0.424712         0.529098         0.786186
 C        -0.802642         0.943194         0.179745
 C        -0.694305         1.536241        -1.342594
 C        -1.999877         2.259872        -0.818712
 C        -3.014341         2.814409        -1.875426
 O        -3.378945         1.277954        -2.123181
 C        -2.973457         1.052691        -0.739276
 C        -1.959804         0.035883        -0.064435
 C        -1.258644         2.481942         0.548507
 H         0.333468         0.542290         1.697478
 H         0.143172         2.288293        -1.475732
 H        -0.660338         0.808565        -2.170690
 H        -3.948695         3.362932        -1.528755
 H        -2.629767         3.375698        -2.760840
 H        -3.780773         1.204638         0.038803
 H        -2.428645        -0.379591         0.790134
 H        -1.746151        -0.959629        -0.510140
 H        -0.427287         3.115666         0.308149
 H        -1.760495         2.830042         1.563376
