19
Iteration:   872charge 0 multiplicity 1
 O         0.298836         0.451865         0.850394
 C        -0.719849         1.069602         0.132976
 C        -0.619092         1.581763        -1.333262
 C        -1.949922         2.244306        -0.821995
 C        -2.974787         2.749104        -1.937476
 O        -3.484286         1.324790        -2.026624
 C        -2.913960         1.058044        -0.698906
 C        -1.918590        -0.017675        -0.092561
 C        -1.397733         2.503186         0.515864
 H         1.094590         0.391004         0.368371
 H         0.301603         2.186758        -1.558869
 H        -0.499463         0.864518        -2.131279
 H        -3.766939         3.321689        -1.426135
 H        -2.775931         3.212305        -2.910139
 H        -3.545179         1.278595         0.256374
 H        -2.219060        -0.377707         0.901732
 H        -1.519165        -0.809968        -0.689178
 H        -0.747784         3.297133         0.655466
 H        -2.050095         2.543292         1.401221
