19
Iteration:  2906charge 0 multiplicity 1
 O         0.454854         0.602449         0.764379
 C        -0.793939         0.983396         0.167118
 C        -0.637408         1.423760        -1.292263
 C        -1.940633         2.255048        -0.940155
 C        -2.960643         2.784507        -1.865307
 O        -3.482554         1.368117        -2.058364
 C        -2.942940         1.090000        -0.692782
 C        -2.022836        -0.035888        -0.087797
 C        -1.332382         2.465843         0.534392
 H         0.534613         0.743621         1.765325
 H         0.217388         2.084405        -1.544281
 H        -0.773774         0.747479        -2.169391
 H        -3.696063         3.385199        -1.369756
 H        -2.536115         3.201546        -2.786895
 H        -3.735941         1.069712         0.016558
 H        -2.504688        -0.472057         0.775520
 H        -1.655678        -0.893952        -0.594044
 H        -0.440516         3.091294         0.465719
 H        -2.009972         2.513708         1.480104
