19
Iteration:  1242charge 0 multiplicity 1
 O         0.476872         0.681724         0.795378
 C        -0.693793         0.952917         0.130240
 C        -0.628040         1.517824        -1.306660
 C        -1.942650         2.125059        -0.880499
 C        -2.950701         2.750741        -1.870969
 O        -3.421819         1.394122        -2.116835
 C        -2.949639         1.085543        -0.696586
 C        -2.085135         0.039289        -0.053127
 C        -1.423946         2.368022         0.557245
 H         0.388412         0.143247         1.537625
 H         0.066202         2.354724        -1.322726
 H        -0.625406         0.968266        -2.225514
 H        -3.793403         3.304113        -1.390467
 H        -2.603808         3.149534        -2.829555
 H        -3.626201         1.450260         0.065989
 H        -2.478555        -0.749425         0.807063
 H        -1.932857        -0.728889        -0.865848
 H        -0.638839         3.023532         0.606408
 H        -2.156001         2.401044         1.419454
