19
Iteration:  1809charge 0 multiplicity 1
 O         0.378138         0.422748         0.792937
 C        -0.747584         1.014524         0.111768
 C        -0.666377         1.661635        -1.306960
 C        -1.983312         2.324348        -0.880968
 C        -2.938728         2.646953        -2.034176
 O        -3.385948         1.229338        -1.924156
 C        -2.984319         1.193118        -0.547697
 C        -2.026151         0.099749        -0.073639
 C        -1.319594         2.478365         0.495304
 H         0.717084        -0.301722         0.282075
 H         0.160792         2.393036        -1.327176
 H        -0.671003         0.948097        -2.173530
 H        -3.606454         3.534346        -1.971458
 H        -2.372102         2.826157        -2.972551
 H        -3.795215         1.423625         0.115669
 H        -2.487398        -0.472444         0.866767
 H        -1.897763        -0.827844        -0.638637
 H        -0.551689         3.162094         0.546434
 H        -1.992253         2.454581         1.437508
