19
Iteration:  4930
 O         0.404129         0.538402         0.832487
 C        -0.721633         0.964546         0.185348
 C        -0.683665         1.615912        -1.247886
 C        -1.986997         2.291934        -0.841017
 C        -2.890168         2.726942        -2.020117
 O        -3.493491         1.382341        -2.110720
 C        -2.969329         1.052545        -0.751127
 C        -1.901272        -0.049759        -0.072516
 C        -1.442927         2.377464         0.664817
 H         1.056076         1.204871         0.806953
 H         0.244939         2.222254        -1.349595
 H        -0.729228         0.938680        -2.156406
 H        -3.826940         3.394021        -1.848195
 H        -2.434218         2.932382        -3.007569
 H        -3.715498         1.136731         0.066557
 H        -2.305880        -0.594105         0.653976
 H        -1.507611        -0.672761        -0.884416
 H        -0.833739         3.277786         0.730642
 H        -1.984421         2.268012         1.653244
