19
Iteration:  3513charge 0 multiplicity 1
 O         0.506958         0.579215         0.734186
 C        -0.744330         0.955038         0.160190
 C        -0.743781         1.545073        -1.271423
 C        -2.110257         2.250772        -0.792658
 C        -2.769200         2.707424        -1.979475
 O        -3.462182         1.288329        -2.076150
 C        -2.999841         1.120131        -0.663851
 C        -1.983485         0.034569         0.008159
 C        -1.368612         2.529535         0.499287
 H         0.328074        -0.351194         0.992557
 H         0.089049         2.235889        -1.336375
 H        -0.862101         0.853903        -2.063684
 H        -3.550137         3.437840        -1.842196
 H        -2.073272         2.973164        -2.714237
 H        -3.979720         1.170534        -0.020434
 H        -2.478225        -0.263895         1.020615
 H        -1.738003        -0.851520        -0.664665
 H        -0.474167         3.197826         0.369183
 H        -1.955432         2.607952         1.426906
