19
Iteration:  2298
 O         0.433742         0.420071         0.653080
 C        -0.693934         1.040856         0.113468
 C        -0.649439         1.530580        -1.317703
 C        -1.975634         2.266882        -0.843195
 C        -2.865026         2.692220        -1.956276
 O        -3.470328         1.229557        -1.998928
 C        -3.008182         1.165561        -0.603273
 C        -2.012679         0.177917         0.023710
 C        -1.352545         2.500661         0.527037
 H         0.002208        -0.113563         1.393976
 H         0.114359         2.331093        -1.523267
 H        -0.555125         0.791283        -2.201315
 H        -3.712547         3.326171        -1.700221
 H        -2.685373         2.896632        -3.107109
 H        -3.795725         1.531051         0.090538
 H        -2.371718        -0.163859         1.038115
 H        -1.800197        -0.692467        -0.544884
 H        -0.541213         3.212023         0.550005
 H        -1.988300         2.585071         1.429631
