19
Iteration:   154
 O         0.351522         0.404983         0.784793
 C        -0.705064         1.023049         0.087166
 C        -0.696872         1.812441        -1.263439
 C        -1.984586         2.353084        -0.764189
 C        -3.139127         2.646250        -1.936098
 O        -3.256559         1.245994        -2.139227
 C        -2.868126         1.128153        -0.720673
 C        -1.993466         0.046476        -0.207350
 C        -1.342870         2.304826         0.757298
 H         0.879104         1.151664         0.970987
 H        -0.073235         2.679295        -1.305266
 H        -0.779282         1.234803        -2.198123
 H        -4.088423         3.039526        -1.510927
 H        -2.903928         3.225645        -2.888618
 H        -3.683339         1.255924        -0.002023
 H        -2.308984        -0.373669         0.738102
 H        -1.822421        -0.793600        -0.911585
 H        -0.583918         2.951550         1.081427
 H        -1.999746         2.030570         1.481181
