19
Iteration:  2668charge 0 multiplicity 1
 O         0.398685         0.575585         0.666354
 C        -0.744907         1.061380         0.164682
 C        -0.676892         1.431935        -1.280691
 C        -1.912018         2.281294        -0.923286
 C        -2.920631         2.710744        -1.992888
 O        -3.512168         1.307429        -2.013841
 C        -2.988567         1.183073        -0.652594
 C        -1.974448         0.002709        -0.025055
 C        -1.270013         2.436989         0.626012
 H         0.250827        -0.007300         1.482965
 H         0.270570         2.033380        -1.367827
 H        -0.740077         0.655917        -2.111986
 H        -3.833295         3.307365        -1.808143
 H        -2.591771         3.071674        -2.941258
 H        -3.821119         1.609484         0.109402
 H        -2.334516        -0.464449         1.048883
 H        -1.616783        -0.803178        -0.698379
 H        -0.499689         3.159138         0.609203
 H        -2.030853         2.613053         1.457366
