19
Iteration:  3637
 O         0.381180         0.551454         0.738329
 C        -0.800323         0.947658         0.124834
 C        -0.655994         1.526798        -1.341813
 C        -1.937270         2.283379        -0.868714
 C        -2.876388         2.645884        -2.012005
 O        -3.484698         1.324446        -2.020778
 C        -2.847853         1.167145        -0.625928
 C        -2.047851         0.090843         0.087843
 C        -1.363270         2.343003         0.521178
 H         0.594106         1.437015         1.133906
 H         0.183813         2.178233        -1.504936
 H        -0.603487         0.888838        -2.228879
 H        -3.645867         3.351985        -2.011598
 H        -2.353233         2.793103        -2.971124
 H        -3.720640         1.517474         0.081555
 H        -2.490506        -0.117026         1.136460
 H        -2.179724        -0.836140        -0.458988
 H        -0.472755         2.952021         0.481336
 H        -1.922404         2.354778         1.456981
