19
Iteration:  2211
 O         0.545776         0.555657         0.694245
 C        -0.704830         0.974833         0.198057
 C        -0.725454         1.505770        -1.253289
 C        -1.885920         2.261915        -0.868092
 C        -2.887047         2.708650        -2.060234
 O        -3.617075         1.435463        -1.965316
 C        -2.944060         1.090746        -0.652318
 C        -2.027738        -0.056578        -0.044824
 C        -1.377198         2.482816         0.506087
 H         0.442353         0.375471         1.699680
 H         0.226140         2.143890        -1.262614
 H        -0.754994         0.698877        -2.115730
 H        -3.621751         3.412373        -1.814250
 H        -2.429347         2.721051        -3.117516
 H        -3.566489         1.375470         0.123623
 H        -2.675258        -0.429943         0.835535
 H        -1.701627        -0.928064        -0.552156
 H        -0.544579         3.054256         0.718969
 H        -2.218941         2.703594         1.133599
