19
Iteration:  2263charge 0 multiplicity 1
 O         0.378476         0.366230         0.766540
 C        -0.753884         0.982896         0.126917
 C        -0.716411         1.568817        -1.376115
 C        -1.952215         2.403093        -0.821335
 C        -3.097778         2.723208        -1.935031
 O        -3.315136         1.178480        -1.985549
 C        -2.854877         1.183314        -0.670467
 C        -2.040592         0.056373        -0.022176
 C        -1.279471         2.559998         0.438997
 H         0.219665         0.086008         1.736501
 H         0.120315         2.246889        -1.374781
 H        -0.897961         0.944158        -2.257985
 H        -3.945398         3.246829        -1.380642
 H        -2.873464         3.080505        -2.988878
 H        -3.717157         1.519114         0.050706
 H        -2.448448        -0.214383         0.964374
 H        -1.866243        -0.798481        -0.604209
 H        -0.190517         3.042798         0.320312
 H        -1.678684         2.987753         1.365428
