19
Iteration:  4757
 O         0.177372         0.285035         0.923187
 C        -0.676076         1.053944         0.110103
 C        -0.643410         1.790719        -1.335052
 C        -1.968726         2.346310        -0.844234
 C        -3.089521         2.641160        -1.945348
 O        -3.350060         1.260085        -2.086240
 C        -2.873450         1.053840        -0.670036
 C        -1.833787         0.038642        -0.112832
 C        -1.409914         2.538954         0.559699
 H         1.063500         0.781416         0.822130
 H         0.115839         2.511764        -1.397495
 H        -0.635381         1.252788        -2.283849
 H        -3.853549         3.278713        -1.574379
 H        -2.655489         2.991261        -2.881083
 H        -3.859188         1.134298        -0.097901
 H        -2.202551        -0.402999         0.819187
 H        -1.342951        -0.731125        -0.867745
 H        -0.591254         3.170722         0.676512
 H        -1.957634         2.316264         1.470927
