19
Iteration:  3186charge 0 multiplicity 1
 O         0.414607         0.390155         0.802591
 C        -0.786671         0.997143         0.165746
 C        -0.740188         1.583630        -1.282816
 C        -1.980404         2.310579        -0.882219
 C        -2.939643         2.691821        -2.023253
 O        -3.450455         1.345573        -2.068933
 C        -2.905235         1.147500        -0.695143
 C        -1.936444         0.044029         0.024840
 C        -1.382953         2.423017         0.590766
 H         1.206413         0.929937         0.805411
 H         0.194064         2.278138        -1.417019
 H        -0.759962         0.933285        -2.245250
 H        -3.685502         3.346709        -1.637120
 H        -2.553580         2.993738        -3.002754
 H        -3.691266         1.370478        -0.019954
 H        -2.405666        -0.246012         0.916958
 H        -1.671039        -0.840924        -0.582096
 H        -0.490631         3.185583         0.497005
 H        -2.128582         2.494468         1.394588
