19
Iteration:  4364charge 0 multiplicity 1
 O         0.394531         0.405994         0.772761
 C        -0.779878         1.011126         0.164873
 C        -0.640374         1.685787        -1.238273
 C        -1.893775         2.326064        -0.881749
 C        -2.978949         2.707912        -2.027038
 O        -3.417082         1.231446        -2.038800
 C        -2.924121         1.136396        -0.689386
 C        -1.934862         0.095892        -0.084874
 C        -1.484751         2.342703         0.648568
 H         1.076576         1.060256         0.790285
 H         0.158541         2.482541        -1.222338
 H        -0.604843         1.104351        -2.245449
 H        -3.826168         3.336694        -1.832747
 H        -2.504588         2.889485        -2.981976
 H        -3.778618         1.403599         0.057136
 H        -2.353250        -0.289852         0.764627
 H        -1.746002        -0.743365        -0.752671
 H        -0.682735         3.166256         0.755610
 H        -2.350734         2.306730         1.441610
