19
Iteration:   610charge 0 multiplicity 1
 O         0.344191         0.469982         0.801488
 C        -0.734655         1.025576         0.059168
 C        -0.653301         1.686433        -1.340212
 C        -2.056033         2.272268        -0.813017
 C        -2.983817         2.732571        -1.867584
 O        -3.347096         1.307868        -2.064374
 C        -2.941664         1.012009        -0.675217
 C        -1.818844         0.066508        -0.113087
 C        -1.422119         2.452653         0.574856
 H         0.037649        -0.465599         1.124174
 H        -0.054671         2.637275        -1.236234
 H        -0.599096         1.147375        -2.311538
 H        -3.723977         3.326778        -1.395489
 H        -2.651090         3.110976        -2.763249
 H        -3.917144         1.082615        -0.154674
 H        -2.219244        -0.268096         0.851117
 H        -1.439984        -0.808002        -0.645532
 H        -0.507186         2.954293         0.676957
 H        -2.162035         2.459798         1.379422
