19
Iteration:  4222
 O         0.379241         0.583083         0.852700
 C        -0.760589         0.941734         0.171307
 C        -0.682488         1.625677        -1.314399
 C        -1.956817         2.255917        -0.845102
 C        -2.851784         2.716541        -2.040599
 O        -3.486051         1.303039        -2.036390
 C        -2.925390         1.119308        -0.606179
 C        -2.005407        -0.008414        -0.124322
 C        -1.411586         2.365083         0.619033
 H         0.975662         1.156639         0.365587
 H         0.141172         2.319005        -1.448148
 H        -0.616211         1.047780        -2.244217
 H        -3.728188         3.357592        -1.766973
 H        -2.246833         2.942788        -2.909667
 H        -3.754796         1.391464         0.032371
 H        -2.270395        -0.680945         0.658819
 H        -1.730356        -0.617303        -0.985577
 H        -0.492081         2.983855         0.620374
 H        -2.060522         2.324467         1.530216
