19
Iteration:   139
 O         0.459636         0.326018         0.747403
 C        -0.719345         0.977039         0.083217
 C        -0.671909         1.833418        -1.343102
 C        -2.097983         2.416169        -0.762892
 C        -3.136446         2.733447        -1.905375
 O        -3.197488         1.231893        -2.102340
 C        -2.914460         1.122979        -0.710088
 C        -1.899211         0.078423        -0.088300
 C        -1.487735         2.282145         0.660922
 H         0.743624         0.802544         1.577015
 H         0.269879         2.389721        -1.452229
 H        -0.669723         1.299709        -2.276446
 H        -4.125027         3.182186        -1.591687
 H        -2.748502         3.221603        -2.745140
 H        -3.928270         1.206349        -0.218411
 H        -2.363499        -0.340347         0.855611
 H        -1.717392        -0.788466        -0.750634
 H        -0.820576         3.161807         0.810835
 H        -2.311274         2.202641         1.472688
