19
Iteration:  4054charge 0 multiplicity 1
 O         0.297447         0.570675         0.914073
 C        -0.725241         1.023712         0.088034
 C        -0.661894         1.554498        -1.415303
 C        -1.915291         2.344602        -0.906091
 C        -3.126482         2.674232        -1.906623
 O        -3.345381         1.235435        -2.030889
 C        -2.844072         1.120929        -0.636694
 C        -1.968367         0.069969        -0.099640
 C        -1.288835         2.444128         0.548324
 H         0.047324        -0.325209         1.241655
 H         0.175441         2.182878        -1.672919
 H        -0.659749         0.785762        -2.171616
 H        -3.990675         3.239801        -1.360225
 H        -3.023027         3.228416        -2.897476
 H        -3.701970         1.408286         0.025342
 H        -2.282174        -0.621049         0.648735
 H        -1.692811        -0.511799        -0.895320
 H        -0.351864         3.064129         0.679434
 H        -1.998791         2.467647         1.430689
