19
Iteration:  2920
 O         0.551475         0.557394         0.738387
 C        -0.722146         0.931072         0.204793
 C        -0.700115         1.511292        -1.279192
 C        -1.935896         2.224873        -0.825689
 C        -2.946356         2.712145        -1.993413
 O        -3.482785         1.394381        -2.026756
 C        -2.938430         1.111679        -0.679469
 C        -2.032759        -0.011392        -0.071247
 C        -1.413005         2.454477         0.518471
 H         0.363612         0.490324         1.646516
 H         0.272264         2.086122        -1.389247
 H        -0.780750         0.665912        -2.075000
 H        -3.683165         3.480740        -1.626156
 H        -2.718976         3.081740        -2.971146
 H        -3.738246         1.641084        -0.045769
 H        -2.424160        -0.509859         0.722482
 H        -1.835347        -0.682659        -0.860859
 H        -0.695471         3.188449         0.716385
 H        -2.200258         2.714878         1.224230
