19
Iteration:  3419charge 0 multiplicity 1
 O         0.408175         0.551721         0.923693
 C        -0.738792         1.013527         0.144926
 C        -0.744619         1.546854        -1.391957
 C        -1.957774         2.249459        -0.843638
 C        -2.931017         2.772244        -2.021429
 O        -3.465141         1.428548        -1.990952
 C        -2.965936         1.020907        -0.743208
 C        -1.915581        -0.045143        -0.115730
 C        -1.352699         2.354083         0.524317
 H         0.664771         1.307415         1.564278
 H         0.181425         2.215512        -1.586551
 H        -0.865117         0.689934        -2.105688
 H        -3.662946         3.410659        -1.502283
 H        -2.517722         3.002387        -3.072910
 H        -3.786666         1.152380         0.077788
 H        -2.437305        -0.326647         0.789775
 H        -1.453264        -0.829062        -0.574067
 H        -0.552286         3.089983         0.577550
 H        -1.997406         2.256591         1.488533
