19
Iteration:  4933
 O         0.394836         0.550987         0.824988
 C        -0.698153         0.960705         0.200847
 C        -0.702494         1.574647        -1.249082
 C        -1.993301         2.335120        -0.847817
 C        -2.891844         2.720853        -1.977105
 O        -3.481336         1.376314        -2.101933
 C        -2.973377         1.047097        -0.778913
 C        -1.894297        -0.029287        -0.083559
 C        -1.454222         2.358711         0.653001
 H         1.029102         1.318496         0.760601
 H         0.151851         2.267229        -1.336700
 H        -0.682120         0.885559        -2.089143
 H        -3.720475         3.413378        -1.899006
 H        -2.442385         2.893467        -2.994710
 H        -3.686641         1.233495         0.015109
 H        -2.405896        -0.732922         0.690360
 H        -1.496757        -0.673619        -0.897466
 H        -0.714716         3.228406         0.799780
 H        -1.974529         2.310159         1.597464
