19
Iteration:  1999
 O         0.339412         0.580816         0.855513
 C        -0.791775         1.010961         0.078410
 C        -0.677162         1.517233        -1.387165
 C        -1.931331         2.231400        -0.942299
 C        -3.022247         2.733735        -1.958675
 O        -3.488075         1.310270        -2.022569
 C        -2.900256         1.084549        -0.612354
 C        -2.001266         0.108499         0.034616
 C        -1.142373         2.426127         0.508544
 H         0.232522        -0.432529         0.894441
 H         0.205392         2.250311        -1.397838
 H        -0.679567         0.840593        -2.276079
 H        -3.849596         3.325419        -1.532124
 H        -2.673178         3.134253        -2.894444
 H        -3.789260         1.341065         0.111195
 H        -2.381648        -0.258477         0.974254
 H        -1.685384        -0.875279        -0.509281
 H        -0.289407         3.170809         0.553936
 H        -1.729197         2.498590         1.316998
