19
Iteration:  4799
 O         0.414080         0.521509         0.805300
 C        -0.785240         1.009104         0.186137
 C        -0.604115         1.629965        -1.246573
 C        -1.969399         2.322888        -0.851898
 C        -2.921887         2.657512        -1.977747
 O        -3.405233         1.318221        -2.097296
 C        -2.960562         1.069465        -0.705317
 C        -1.996251        -0.001760        -0.109809
 C        -1.448170         2.380602         0.627664
 H         1.077778         1.206294         0.777541
 H         0.298422         2.186117        -1.229587
 H        -0.810913         1.033056        -2.144380
 H        -3.723124         3.259266        -1.574132
 H        -2.620576         3.076900        -2.921685
 H        -3.637783         1.243430         0.029808
 H        -2.296708        -0.644388         0.670220
 H        -1.634067        -0.619140        -0.981404
 H        -0.829870         3.215575         0.858481
 H        -2.350519         2.385817         1.339749
