19
Iteration:   228
 O         0.331233         0.668859         0.852009
 C        -0.709408         0.941475         0.067434
 C        -0.620054         1.764649        -1.243710
 C        -1.994701         2.285352        -0.841613
 C        -3.035617         2.739266        -1.892710
 O        -3.441384         1.342687        -2.026308
 C        -2.858421         1.077188        -0.740571
 C        -1.877107        -0.006088        -0.283926
 C        -1.423134         2.181465         0.628992
 H         0.316467        -0.329474         0.942508
 H         0.034892         2.554432        -0.994764
 H        -0.181245         1.108002        -1.952573
 H        -3.859591         3.435693        -1.608142
 H        -2.660416         3.061988        -2.798713
 H        -3.559572         1.094759         0.096814
 H        -2.277040        -0.513959         0.612002
 H        -1.539661        -0.861701        -0.936171
 H        -0.669587         2.889425         0.866464
 H        -2.234856         2.183008         1.452490
