19
Iteration:  3093charge 0 multiplicity 1
 O         0.175090         0.256667         0.851423
 C        -0.704787         1.064454         0.088012
 C        -0.555936         1.723155        -1.351258
 C        -1.939415         2.340057        -0.898369
 C        -2.984269         2.639444        -1.949097
 O        -3.451460         1.210135        -1.984852
 C        -2.860631         1.169743        -0.583874
 C        -1.951966         0.043361        -0.104000
 C        -1.363774         2.578798         0.513134
 H         1.108486         0.513262         0.552469
 H         0.190185         2.488367        -1.240313
 H        -0.270359         1.155843        -2.207808
 H        -3.755215         3.259629        -1.494342
 H        -2.567658         2.921555        -2.917121
 H        -3.796092         1.511403         0.033253
 H        -2.226124        -0.457295         0.936624
 H        -1.813002        -0.746714        -0.836695
 H        -0.573894         3.250516         0.636135
 H        -2.167216         2.512371         1.322887
