19
Iteration:  1338charge 0 multiplicity 1
 O         0.397996         0.514230         0.745895
 C        -0.770747         0.992935         0.155292
 C        -0.680091         1.593206        -1.226953
 C        -1.964919         2.325713        -0.883663
 C        -3.017894         2.743084        -1.924344
 O        -3.411485         1.269091        -2.084560
 C        -2.866867         1.059066        -0.720227
 C        -1.912234         0.040808        -0.101709
 C        -1.370636         2.505875         0.588988
 H         0.076362        -0.268343         1.234572
 H         0.141970         2.344840        -1.381636
 H        -0.760528         0.803251        -1.989461
 H        -3.825562         3.334788        -1.484967
 H        -2.461804         3.151756        -2.770632
 H        -3.798945         1.092274         0.034712
 H        -2.377457        -0.357763         0.762305
 H        -1.569032        -0.783612        -0.650826
 H        -0.588020         3.217205         0.863881
 H        -2.228040         2.405197         1.365392
