19
Iteration:  3726charge 0 multiplicity 1
 O         0.359620         0.510349         0.929497
 C        -0.733376         0.955988         0.095989
 C        -0.567109         1.547759        -1.302970
 C        -1.894857         2.318474        -0.921688
 C        -3.032981         2.638072        -2.073916
 O        -3.479589         1.318511        -1.961128
 C        -2.932673         1.213093        -0.593824
 C        -2.035792         0.097656        -0.066939
 C        -1.358355         2.413178         0.493150
 H         1.253768         0.571457         0.460795
 H         0.274882         2.175493        -1.528598
 H        -0.612020         0.670856        -2.071652
 H        -3.792713         3.322466        -1.990498
 H        -2.552916         2.742976        -3.088202
 H        -3.819535         1.481459         0.116223
 H        -2.194990        -0.294368         1.012933
 H        -1.959190        -0.836655        -0.719898
 H        -0.624332         3.196063         0.729787
 H        -2.010372         2.098180         1.258148
