19
Iteration:  1376
 O         0.451339         0.695883         0.851146
 C        -0.745866         0.949557         0.078905
 C        -0.730293         1.535330        -1.305540
 C        -2.036875         2.255920        -0.793135
 C        -2.881519         2.767474        -1.913555
 O        -3.486395         1.371613        -2.132989
 C        -2.927306         1.080746        -0.680247
 C        -1.946164        -0.058819        -0.093865
 C        -1.310379         2.350075         0.567228
 H         0.299336         0.115872         1.549737
 H         0.031746         2.283450        -1.265836
 H        -0.516360         0.968233        -2.204241
 H        -3.733498         3.425083        -1.641786
 H        -2.536810         3.167365        -2.863396
 H        -3.771074         1.058045        -0.117345
 H        -2.560920        -0.526217         0.846989
 H        -1.791667        -0.896227        -0.916059
 H        -0.467653         3.077493         0.734579
 H        -2.061241         2.288589         1.287539
