19
Iteration:    90
 O         0.548646         0.656729         0.811944
 C        -0.761483         0.948836         0.173236
 C        -0.735796         1.635031        -1.173879
 C        -2.076583         2.272745        -0.801017
 C        -2.992977         2.799729        -1.964718
 O        -3.400289         1.312450        -2.081344
 C        -2.932153         1.055030        -0.711078
 C        -1.937926        -0.053416        -0.216565
 C        -1.443981         2.350054         0.626192
 H         0.684946        -0.290547         0.633207
 H         0.060539         2.399420        -1.219926
 H        -0.597106         1.042144        -2.134034
 H        -3.863800         3.408424        -1.780502
 H        -2.489676         3.178637        -2.918671
 H        -3.779505         1.271923        -0.073763
 H        -2.335973        -0.662062         0.563412
 H        -1.540831        -0.707605        -1.002231
 H        -0.540855         3.059558         0.711496
 H        -2.012659         2.300434         1.571168
