19
Iteration:  4745
 O         0.254285         0.320582         0.899317
 C        -0.724552         1.085574         0.162488
 C        -0.678318         1.725463        -1.327882
 C        -2.031033         2.261361        -0.879777
 C        -3.018992         2.689704        -1.917802
 O        -3.386492         1.250262        -2.095528
 C        -2.825176         1.066424        -0.754149
 C        -1.855187         0.111156        -0.139048
 C        -1.364291         2.455067         0.610749
 H         1.066812         0.747952         1.077565
 H        -0.115120         2.591220        -1.435399
 H        -0.554093         1.023835        -2.150114
 H        -3.866419         3.156849        -1.461182
 H        -2.708853         3.176174        -2.820782
 H        -3.608058         1.288582         0.005575
 H        -2.191204        -0.310403         0.783014
 H        -1.638329        -0.832167        -0.788281
 H        -0.737706         3.287969         0.734046
 H        -2.176507         2.584810         1.360182
