19
Iteration:  2465
 O         0.505962         0.462437         0.684724
 C        -0.731588         1.014442         0.119327
 C        -0.698058         1.500162        -1.333666
 C        -2.005993         2.274362        -0.833296
 C        -2.879602         2.676696        -2.022612
 O        -3.505322         1.345945        -2.026911
 C        -3.004989         1.165180        -0.574726
 C        -2.009160         0.138977         0.073981
 C        -1.316405         2.415854         0.521803
 H         0.417863         0.212319         1.636978
 H         0.143524         2.273758        -1.581331
 H        -0.706951         0.701747        -2.138810
 H        -3.747127         3.300497        -1.909011
 H        -2.315918         2.869806        -2.999729
 H        -3.892465         1.623945         0.018732
 H        -2.300432        -0.302647         0.978919
 H        -1.912474        -0.717993        -0.634971
 H        -0.600420         3.204146         0.561446
 H        -1.957267         2.270086         1.351213
