19
Iteration:  4381
 O         0.223804         0.374146         0.745692
 C        -0.789253         1.013697         0.121327
 C        -0.572461         1.759504        -1.221490
 C        -1.974520         2.418198        -0.848503
 C        -3.031067         2.603341        -2.020746
 O        -3.344837         1.159498        -1.981259
 C        -2.800428         1.150899        -0.630527
 C        -1.999933         0.021436        -0.175016
 C        -1.384876         2.476967         0.618509
 H         0.986850         0.953482         0.842894
 H         0.297756         2.423522        -1.348921
 H        -0.396418         1.131656        -2.074498
 H        -3.860522         3.279163        -1.607785
 H        -2.611949         3.127431        -2.957185
 H        -3.736020         1.409829        -0.140309
 H        -2.437808        -0.485253         0.799990
 H        -1.633197        -0.688429        -0.932044
 H        -0.589085         3.131999         0.868928
 H        -2.071186         2.434522         1.418051
