19
Iteration:  4164
 O         0.284048         0.340789         0.859692
 C        -0.689260         1.057157         0.192164
 C        -0.644216         1.628287        -1.293859
 C        -2.038289         2.309749        -0.849676
 C        -3.082840         2.687480        -1.896066
 O        -3.303220         1.282344        -2.124687
 C        -2.919952         1.025011        -0.674772
 C        -1.957751         0.063103        -0.086469
 C        -1.325634         2.571473         0.480858
 H         1.144345         0.552192         0.474017
 H         0.066532         2.482680        -1.439012
 H        -0.649956         0.864002        -2.058954
 H        -3.986136         3.163606        -1.538058
 H        -2.825963         3.389326        -2.738361
 H        -3.766167         0.979621        -0.062900
 H        -2.338499        -0.186521         0.903410
 H        -1.622205        -0.789486        -0.577696
 H        -0.567477         3.381637         0.506094
 H        -1.866926         2.673218         1.526559
