19
Iteration:  3178
 O         0.435196         0.439966         0.796118
 C        -0.728307         1.020287         0.166833
 C        -0.712766         1.528987        -1.272054
 C        -1.978011         2.275415        -0.830680
 C        -2.946701         2.707383        -2.018821
 O        -3.442952         1.384487        -2.114491
 C        -2.941051         1.108419        -0.668535
 C        -1.972214         0.069940         0.026426
 C        -1.376378         2.390902         0.557670
 H         1.131843         1.104446         0.601143
 H         0.167024         2.117996        -1.575372
 H        -0.996626         0.786437        -2.009854
 H        -3.663686         3.541515        -1.674710
 H        -2.390712         2.917917        -3.025164
 H        -3.861517         1.191175        -0.118159
 H        -2.364843        -0.344872         1.030100
 H        -1.888026        -0.718000        -0.680467
 H        -0.686949         3.153439         0.807900
 H        -2.070136         2.435519         1.430519
