19
Iteration:  1880charge 0 multiplicity 1
 O         0.289116         0.427163         0.904280
 C        -0.745591         0.992107         0.147521
 C        -0.689633         1.511620        -1.374853
 C        -1.886548         2.325922        -0.944145
 C        -3.029882         2.746894        -1.903728
 O        -3.446204         1.295779        -1.957561
 C        -2.882042         1.114054        -0.657205
 C        -2.017699        -0.010462        -0.056449
 C        -1.254278         2.527869         0.393685
 H         0.863892         1.187941         0.934178
 H         0.229606         2.114627        -1.616471
 H        -0.784991         0.729127        -2.146655
 H        -3.889432         3.227241        -1.436769
 H        -2.846047         3.253268        -2.851766
 H        -3.559468         1.430436         0.052698
 H        -2.251059        -0.507113         0.817956
 H        -1.637618        -0.872014        -0.631154
 H        -0.297150         3.224782         0.473991
 H        -1.865456         2.737487         1.224306
