19
Iteration:  2684
 O         0.525334         0.560881         0.702018
 C        -0.793742         0.964524         0.148343
 C        -0.647602         1.498008        -1.305455
 C        -1.967167         2.227985        -0.872972
 C        -2.853543         2.681762        -2.043568
 O        -3.551784         1.351144        -1.948551
 C        -2.952846         1.127327        -0.605428
 C        -2.057775         0.077391        -0.067252
 C        -1.367133         2.447920         0.549542
 H         0.451337         0.450921         1.658842
 H         0.124337         2.225571        -1.467475
 H        -0.767999         0.727844        -2.019805
 H        -3.373275         3.608554        -1.805054
 H        -2.345850         2.768412        -3.054166
 H        -3.712666         1.266872         0.164251
 H        -2.495586        -0.386640         0.744267
 H        -1.820044        -0.618076        -0.888298
 H        -0.521309         3.184818         0.808188
 H        -2.051960         2.477781         1.383176
