19
Iteration:  3777
 O         0.373797         0.567019         0.904347
 C        -0.745134         1.002509         0.147348
 C        -0.629989         1.488731        -1.377535
 C        -2.035024         2.183929        -0.852206
 C        -2.909678         2.757708        -2.007615
 O        -3.450676         1.307392        -2.016644
 C        -2.989872         1.107335        -0.582967
 C        -1.957075         0.038711        -0.080234
 C        -1.303296         2.556959         0.488879
 H         0.678555        -0.351089         0.731392
 H         0.141318         2.196582        -1.568818
 H        -0.481586         0.735586        -2.120140
 H        -3.861713         3.416070        -1.845912
 H        -2.588268         3.045214        -2.983425
 H        -3.826159         1.230182         0.044696
 H        -2.414983        -0.369444         0.851288
 H        -1.755210        -0.817585        -0.640152
 H        -0.445034         3.209351         0.333818
 H        -1.990470         2.685995         1.395193
