19
Iteration:  2595
 O         0.452412         0.478140         0.682694
 C        -0.747350         0.981586         0.167760
 C        -0.690140         1.559968        -1.259348
 C        -1.973184         2.340494        -0.880686
 C        -2.967325         2.684778        -2.063910
 O        -3.434381         1.256007        -1.962091
 C        -2.912860         1.213791        -0.598104
 C        -2.060203        -0.020637        -0.013882
 C        -1.306770         2.528101         0.521753
 H         0.360836        -0.197903         1.328279
 H         0.164345         2.167774        -1.511527
 H        -0.920935         0.819679        -2.004857
 H        -3.731779         3.462636        -1.864019
 H        -2.634512         2.987526        -3.091442
 H        -3.755356         1.443981        -0.030131
 H        -2.445600        -0.326177         0.896345
 H        -1.679432        -0.814897        -0.693284
 H        -0.425866         3.196881         0.708711
 H        -1.936005         2.654221         1.468931
