19
Iteration:  3673charge 0 multiplicity 1
 O         0.381551         0.356729         0.783373
 C        -0.736591         1.011611         0.177761
 C        -0.738253         1.480197        -1.329466
 C        -2.003479         2.288509        -0.866438
 C        -3.018540         2.681829        -1.969297
 O        -3.326868         1.261522        -2.120661
 C        -2.888283         1.184617        -0.598407
 C        -2.032608         0.168179         0.076068
 C        -1.322576         2.515892         0.456201
 H         0.923268         0.842998         1.475816
 H         0.027362         2.231081        -1.478659
 H        -0.891818         0.611805        -2.040392
 H        -3.952560         3.185010        -1.555615
 H        -2.498922         3.194795        -2.867252
 H        -3.834911         1.390902        -0.090748
 H        -2.273135        -0.242257         0.964142
 H        -1.742681        -0.609853        -0.666472
 H        -0.521859         3.263690         0.202796
 H        -1.837786         2.855750         1.314359
