19
Iteration:   726charge 0 multiplicity 1
 O         0.323454         0.420302         0.817612
 C        -0.762741         0.974241         0.106764
 C        -0.623739         1.688333        -1.339442
 C        -1.939650         2.287341        -0.911230
 C        -3.023521         2.726844        -1.858622
 O        -3.372888         1.233908        -2.006588
 C        -2.900023         1.112231        -0.692336
 C        -1.946450         0.038324        -0.152099
 C        -1.361428         2.471265         0.540615
 H         0.419587         0.876021         1.724215
 H         0.158927         2.364732        -1.312699
 H        -0.785367         1.174211        -2.242713
 H        -3.812937         3.219204        -1.204795
 H        -2.952032         3.124564        -2.910525
 H        -3.579213         1.374942         0.164757
 H        -2.300529        -0.531310         0.683134
 H        -1.674049        -0.692889        -0.940356
 H        -0.589455         3.145393         0.561170
 H        -2.013270         2.482626         1.393624
