19
Iteration:  4974charge 0 multiplicity 1
 O         0.314977         0.423172         0.860108
 C        -0.781099         1.025667         0.078023
 C        -0.630251         1.672242        -1.296366
 C        -1.976406         2.305062        -0.826098
 C        -3.044089         2.681988        -1.874226
 O        -3.322533         1.259643        -2.118581
 C        -2.897003         1.126958        -0.713192
 C        -1.968600        -0.010538        -0.053566
 C        -1.385256         2.449158         0.529811
 H         1.097598         0.933469         0.912548
 H         0.042003         2.554687        -1.313494
 H        -0.488050         1.064537        -2.228209
 H        -3.852620         3.326148        -1.362611
 H        -2.610746         3.110334        -2.795240
 H        -3.861932         1.300788        -0.124141
 H        -2.235628        -0.439364         0.812989
 H        -1.641330        -0.713457        -0.824660
 H        -0.547505         3.060046         0.846933
 H        -2.203563         2.458716         1.298682
