19
Iteration:  3873
 O         0.434888         0.653843         0.808323
 C        -0.788483         0.977918         0.127683
 C        -0.709593         1.512552        -1.337022
 C        -2.010321         2.288002        -0.882645
 C        -2.823132         2.658375        -2.158029
 O        -3.527319         1.342675        -1.928725
 C        -2.935869         1.157678        -0.588227
 C        -1.948700         0.066090        -0.005110
 C        -1.364755         2.324282         0.524567
 H         0.548212        -0.158026         1.298153
 H         0.210182         2.252082        -1.394537
 H        -0.740685         0.968011        -2.297710
 H        -3.609593         3.486709        -2.108494
 H        -2.050871         2.781873        -2.911648
 H        -3.850205         1.337335         0.102361
 H        -2.374156        -0.373103         0.924399
 H        -1.679997        -0.807749        -0.727123
 H        -0.606989         3.053012         0.648582
 H        -2.014087         2.301607         1.441474
