19
Iteration:  2849charge 0 multiplicity 1
 O         0.353068         0.387510         0.714357
 C        -0.756727         1.006693         0.159676
 C        -0.595061         1.585533        -1.256701
 C        -1.953310         2.327656        -0.933208
 C        -3.043733         2.636485        -2.019960
 O        -3.450045         1.234520        -1.961132
 C        -2.879756         1.191117        -0.641178
 C        -1.971522         0.130051        -0.064707
 C        -1.307858         2.484779         0.568441
 H         0.112286         0.186839         1.596367
 H         0.183337         2.309719        -1.416513
 H        -0.743136         0.943319        -2.092345
 H        -3.821469         3.286297        -1.684442
 H        -2.661355         3.060222        -2.985046
 H        -3.753853         1.378353        -0.006527
 H        -2.366833        -0.427369         0.843705
 H        -1.617686        -0.525803        -0.912093
 H        -0.514827         3.336302         0.533149
 H        -1.781000         2.740938         1.542439
