19
Iteration:  4603charge 0 multiplicity 1
 O         0.308796         0.450206         0.848369
 C        -0.741240         1.043158         0.110007
 C        -0.634592         1.676345        -1.271041
 C        -2.002288         2.298780        -0.788266
 C        -2.946029         2.679887        -1.952514
 O        -3.456951         1.261108        -2.121651
 C        -2.852912         1.080559        -0.716606
 C        -1.904945         0.041761        -0.132910
 C        -1.397777         2.443600         0.644012
 H         0.975975         1.109524         0.823491
 H         0.148602         2.357216        -1.342329
 H        -0.799543         1.089020        -2.172711
 H        -3.801509         3.284372        -1.616933
 H        -2.544782         2.973683        -2.935556
 H        -3.726134         1.063911        -0.023546
 H        -2.385233        -0.406085         0.746189
 H        -1.728675        -0.854468        -0.853976
 H        -0.579437         3.069896         0.747770
 H        -2.047271         2.354952         1.509964
