19
Iteration:   501
 O         0.309413         0.418900         0.821453
 C        -0.754763         0.985869         0.156417
 C        -0.642450         1.746827        -1.250515
 C        -2.003383         2.356242        -0.840348
 C        -3.083390         2.645440        -1.860854
 O        -3.293674         1.304587        -2.088530
 C        -2.938701         1.041291        -0.732320
 C        -1.947995         0.020855        -0.234118
 C        -1.325967         2.431776         0.657684
 H         1.077514         0.766949         0.375156
 H         0.170404         2.468435        -1.284128
 H        -0.615429         1.072307        -2.114164
 H        -4.013610         3.248527        -1.360266
 H        -2.766729         3.170931        -2.718376
 H        -3.790400         0.961617        -0.042125
 H        -2.332185        -0.459553         0.615880
 H        -1.582239        -0.665228        -0.996845
 H        -0.537898         3.067572         0.860920
 H        -2.114800         2.643718         1.408910
