19
Iteration:  4010
 O         0.359565         0.470790         0.763437
 C        -0.723483         1.077663         0.160947
 C        -0.602142         1.585311        -1.284956
 C        -2.031724         2.193460        -0.863637
 C        -2.894610         2.650235        -2.023322
 O        -3.452760         1.305881        -2.063773
 C        -3.009483         1.117779        -0.592658
 C        -1.934200         0.043761         0.020472
 C        -1.403484         2.495286         0.558339
 H         1.080049         0.501081         0.102561
 H         0.174076         2.316079        -1.401152
 H        -0.562059         0.933139        -2.136047
 H        -3.651628         3.515294        -1.706782
 H        -2.358083         2.939359        -2.991741
 H        -3.951143         1.380689         0.038502
 H        -2.151663        -0.416142         0.957591
 H        -1.673808        -0.803470        -0.527015
 H        -0.682532         3.357724         0.627562
 H        -2.161519         2.479538         1.365210
