19
Iteration:  3648charge 0 multiplicity 1
 O         0.356413         0.564483         0.740352
 C        -0.751549         0.982507         0.057428
 C        -0.656533         1.509216        -1.355479
 C        -1.906106         2.295430        -0.873666
 C        -2.933416         2.661607        -2.032807
 O        -3.431369         1.283645        -2.032474
 C        -2.952115         1.150770        -0.666264
 C        -2.131747         0.065427         0.067425
 C        -1.250819         2.363968         0.592928
 H         0.858342         1.177451         1.352574
 H         0.208629         2.132137        -1.351146
 H        -0.866306         0.780113        -2.152156
 H        -3.686654         3.321451        -1.724919
 H        -2.379539         2.984602        -2.916534
 H        -3.866422         1.470547         0.011253
 H        -2.423619         0.113408         1.176657
 H        -1.795739        -0.930295        -0.179027
 H        -0.512390         3.125726         0.774036
 H        -1.964802         2.497445         1.419422
