19
Iteration:  4829charge 0 multiplicity 1
 O         0.373070         0.534754         0.827030
 C        -0.743371         1.026215         0.137106
 C        -0.679342         1.604652        -1.285674
 C        -2.066692         2.229112        -0.799395
 C        -2.875005         2.715477        -1.940020
 O        -3.410548         1.409286        -2.133482
 C        -2.952290         0.967515        -0.767991
 C        -1.903488         0.030759        -0.006348
 C        -1.437083         2.320275         0.567582
 H         0.990119         1.341861         0.840836
 H         0.204228         2.312148        -1.321100
 H        -0.745339         1.142903        -2.293273
 H        -3.677002         3.476522        -1.598444
 H        -2.342590         3.037517        -2.852804
 H        -3.779346         1.043768         0.032840
 H        -2.312262        -0.235382         0.930818
 H        -1.506093        -0.797331        -0.504910
 H        -0.802224         3.210506         0.620378
 H        -2.159352         2.225344         1.404676
