19
Iteration:  4344charge 0 multiplicity 1
 O         0.398390         0.499384         0.810441
 C        -0.693985         1.060332         0.093481
 C        -0.618676         1.606767        -1.267871
 C        -2.116007         2.207454        -0.802224
 C        -2.862575         2.725411        -1.968991
 O        -3.459650         1.407264        -2.155758
 C        -2.967228         1.015810        -0.686577
 C        -1.962105        -0.024321        -0.010889
 C        -1.416338         2.419103         0.589263
 H         1.196862         1.123458         0.765775
 H         0.067858         2.416133        -1.406938
 H        -0.581742         0.709768        -1.955907
 H        -3.739751         3.369030        -1.750849
 H        -2.316922         2.982767        -2.820710
 H        -3.718423         1.149072         0.067243
 H        -2.269441        -0.452389         0.921508
 H        -1.776547        -0.884786        -0.725759
 H        -0.691945         3.300954         0.880100
 H        -2.164926         2.248549         1.413706
