19
Iteration:  2190charge 0 multiplicity 1
 O         0.473053         0.571049         0.703790
 C        -0.749285         0.975791         0.149669
 C        -0.569819         1.539868        -1.261362
 C        -1.931249         2.194862        -0.907112
 C        -2.850553         2.693779        -2.020800
 O        -3.586036         1.335498        -1.907815
 C        -2.996558         1.148115        -0.564934
 C        -2.080217         0.024296        -0.134213
 C        -1.348229         2.498015         0.498271
 H         0.271505         0.193532         1.562458
 H         0.299886         2.255431        -1.260488
 H        -0.553236         0.660925        -1.999416
 H        -3.587359         3.410048        -1.805534
 H        -2.383242         2.651654        -3.035713
 H        -3.681300         1.433021         0.262079
 H        -2.433947        -0.619254         0.752051
 H        -1.899341        -0.619865        -0.988920
 H        -0.685775         3.245430         0.430936
 H        -1.843865         2.588580         1.452334
