19
Iteration:  1666
 O         0.291460         0.396791         0.834810
 C        -0.704044         1.026315         0.084428
 C        -0.633414         1.648593        -1.350824
 C        -1.954973         2.302090        -0.933889
 C        -2.983751         2.671974        -1.999366
 O        -3.471516         1.271036        -1.964229
 C        -2.871570         1.150578        -0.650510
 C        -1.926156         0.115920        -0.018207
 C        -1.311088         2.501093         0.515183
 H         0.112655        -0.459463         1.213763
 H         0.184682         2.382354        -1.282959
 H        -0.713958         0.995813        -2.258840
 H        -3.799510         3.298044        -1.622509
 H        -2.707424         2.986544        -3.025602
 H        -3.721482         1.238780         0.140923
 H        -2.389513        -0.379066         0.963916
 H        -1.647175        -0.757171        -0.669428
 H        -0.495792         3.130854         0.582447
 H        -1.933595         2.478752         1.486827
