19
Iteration:  1049charge 0 multiplicity 1
 O         0.391010         0.443051         0.723546
 C        -0.707232         0.996473         0.095669
 C        -0.572316         1.681329        -1.196679
 C        -1.940188         2.356573        -0.891562
 C        -2.965398         2.669092        -1.995456
 O        -3.544938         1.212748        -1.963220
 C        -2.897576         1.150142        -0.626548
 C        -1.956306         0.075302        -0.102803
 C        -1.392318         2.456950         0.523329
 H        -0.006283        -0.168583         1.335960
 H         0.229603         2.439373        -1.228282
 H        -0.476827         1.009139        -2.066590
 H        -3.631418         3.483767        -1.824328
 H        -2.453555         2.820286        -2.920672
 H        -3.626231         1.386128         0.153027
 H        -2.408889        -0.444352         0.828345
 H        -1.789775        -0.805364        -0.798215
 H        -0.700229         3.272966         0.562750
 H        -2.110105         2.478846         1.340416
