19
Iteration:   405
 O         0.324085         0.557524         0.804197
 C        -0.768271         0.913281         0.119835
 C        -0.582392         1.707959        -1.337316
 C        -1.953329         2.352878        -0.791794
 C        -3.074159         2.768469        -1.817211
 O        -3.355745         1.233077        -2.075889
 C        -2.792779         1.106621        -0.703072
 C        -1.907852         0.002467        -0.279705
 C        -1.483655         2.383857         0.676969
 H         0.210246        -0.417568         1.028760
 H         0.200934         2.422048        -1.272478
 H        -0.475455         1.017873        -2.150975
 H        -3.960510         3.224999        -1.441623
 H        -2.816251         3.153386        -2.810410
 H        -3.530078         1.208355         0.113431
 H        -2.423983        -0.482962         0.576324
 H        -1.490435        -0.672015        -1.103655
 H        -0.688864         3.210016         0.825587
 H        -2.377879         2.459638         1.389772
