19
Iteration:  2010charge 0 multiplicity 1
 O         0.260435         0.509385         0.832565
 C        -0.699550         1.075542         0.107941
 C        -0.621933         1.500345        -1.388340
 C        -1.958549         2.255484        -0.929219
 C        -3.019188         2.670605        -1.852402
 O        -3.458410         1.280594        -1.997062
 C        -2.898500         1.154544        -0.686316
 C        -1.953901         0.103365         0.006972
 C        -1.228397         2.464652         0.449191
 H         0.011541        -0.369446         1.151406
 H         0.275361         2.194326        -1.659561
 H        -0.717391         0.635821        -2.084188
 H        -3.773390         3.231507        -1.259677
 H        -2.901566         3.134105        -2.814614
 H        -3.724702         1.570023         0.093659
 H        -2.311325        -0.165783         0.982052
 H        -1.665106        -0.708264        -0.770671
 H        -0.298669         3.142567         0.448858
 H        -1.780765         2.599813         1.271055
