19
Iteration:  4506charge 0 multiplicity 1
 O         0.209126         0.282452         0.851261
 C        -0.715058         1.108138         0.122175
 C        -0.614701         1.810845        -1.351517
 C        -2.049876         2.313592        -0.853077
 C        -2.973184         2.674384        -1.963861
 O        -3.340944         1.239330        -2.028507
 C        -2.878950         0.987278        -0.682505
 C        -1.917841         0.093939        -0.116800
 C        -1.359797         2.502151         0.647365
 H         1.039051         0.712897         0.897996
 H         0.007654         2.682047        -1.468052
 H        -0.640737         1.134998        -2.255478
 H        -3.894959         3.267268        -1.727923
 H        -2.598732         2.923574        -2.965127
 H        -3.793794         0.952003        -0.119260
 H        -2.303140        -0.365899         0.708656
 H        -1.546696        -0.694619        -0.791873
 H        -0.658760         3.285778         0.640702
 H        -2.004228         2.456622         1.521486
