19
Iteration:  1262charge 0 multiplicity 1
 O         0.493053         0.606647         0.704590
 C        -0.800626         1.039435         0.192464
 C        -0.703330         1.499062        -1.225860
 C        -2.014311         2.282144        -0.780448
 C        -2.880308         2.783687        -1.932767
 O        -3.449815         1.349648        -2.104920
 C        -2.976054         1.050503        -0.710454
 C        -1.927506        -0.045595        -0.137549
 C        -1.390078         2.412872         0.566879
 H         0.335702         0.399132         1.627679
 H         0.196718         2.149692        -1.374942
 H        -0.688552         0.776765        -2.043099
 H        -3.656582         3.524096        -1.657234
 H        -2.348589         3.135308        -2.853511
 H        -3.811719         1.108599        -0.060716
 H        -2.479794        -0.473239         0.918211
 H        -1.791508        -1.016966        -0.573367
 H        -0.558168         3.088061         0.616099
 H        -2.192227         2.345391         1.351617
