19
Iteration:  4589charge 0 multiplicity 1
 O         0.360467         0.539399         0.864461
 C        -0.711752         0.990149         0.090084
 C        -0.697520         1.670844        -1.279152
 C        -2.036141         2.241734        -0.822367
 C        -2.900603         2.713349        -1.968759
 O        -3.412140         1.384182        -2.074134
 C        -3.019338         0.973534        -0.728264
 C        -1.914534        -0.042207        -0.122067
 C        -1.397641         2.347833         0.602433
 H         1.126104         1.165786         1.041560
 H         0.034086         2.541819        -1.497687
 H        -0.643583         0.932766        -2.073971
 H        -3.646716         3.485081        -1.879550
 H        -2.274868         3.100435        -2.814952
 H        -3.914790         1.308970        -0.092283
 H        -2.130667        -0.353124         1.004732
 H        -1.480243        -0.940807        -0.682385
 H        -0.741875         3.334722         0.718926
 H        -1.990605         2.492287         1.587416
