19
Iteration:  3969charge 0 multiplicity 1
 O         0.384507         0.546604         0.766663
 C        -0.791616         0.984564         0.065408
 C        -0.684783         1.563414        -1.314104
 C        -1.920860         2.326694        -0.838472
 C        -2.939496         2.660833        -2.079084
 O        -3.388416         1.276687        -2.069140
 C        -2.986150         1.130678        -0.520955
 C        -2.026991         0.029250         0.001838
 C        -1.303365         2.396950         0.564690
 H         0.787398         1.202449         1.313605
 H         0.144524         2.347303        -1.453950
 H        -0.715632         0.846280        -2.114280
 H        -3.834439         3.198233        -1.750917
 H        -2.586597         2.928004        -3.111022
 H        -3.770393         1.460197         0.197794
 H        -2.454381        -0.311646         1.021114
 H        -1.859545        -0.899212        -0.713800
 H        -0.501710         3.096013         0.627618
 H        -1.919744         2.443029         1.488810
