19
Iteration:  2107charge 0 multiplicity 1
 O         0.491354         0.563012         0.630433
 C        -0.805832         0.956696         0.158090
 C        -0.729059         1.431853        -1.279726
 C        -1.949540         2.300750        -0.870278
 C        -2.901206         2.739181        -1.957377
 O        -3.412670         1.289502        -2.014825
 C        -2.957664         1.144743        -0.660727
 C        -2.058442         0.035209         0.071151
 C        -1.326225         2.520773         0.521952
 H         0.445307         0.091115         1.481581
 H         0.037928         2.147281        -1.524329
 H        -0.835404         0.743266        -2.094409
 H        -3.741579         3.436891        -1.803642
 H        -2.555063         3.018146        -2.923356
 H        -3.781429         1.279219        -0.033712
 H        -2.544411        -0.220395         0.994303
 H        -1.744165        -0.889444        -0.491458
 H        -0.384453         3.214457         0.553505
 H        -2.028040         2.587458         1.410331
