19
Iteration:  3898charge 0 multiplicity 1
 O         0.428450         0.612283         0.824243
 C        -0.740818         1.058515         0.117085
 C        -0.536782         1.533096        -1.309708
 C        -1.915650         2.274773        -0.935980
 C        -2.933780         2.690090        -2.002679
 O        -3.525553         1.225440        -1.964566
 C        -2.927810         1.131158        -0.629539
 C        -2.114842        -0.016600        -0.086866
 C        -1.333740         2.471534         0.489606
 H         0.211724        -0.018283         1.482090
 H         0.276661         2.187165        -1.498383
 H        -0.542718         0.741774        -2.080524
 H        -3.687614         3.385200        -1.383202
 H        -2.467424         3.060619        -2.907067
 H        -3.822267         1.490245         0.089148
 H        -2.531364        -0.319008         0.824338
 H        -1.989782        -0.796434        -0.786084
 H        -0.490537         3.205093         0.638091
 H        -1.973388         2.547219         1.381566
