19
Iteration:   994charge 0 multiplicity 1
 O         0.448330         0.600557         0.752977
 C        -0.732467         0.984867         0.067581
 C        -0.660186         1.519835        -1.371505
 C        -1.954055         2.258501        -0.868399
 C        -2.964180         2.736806        -1.928664
 O        -3.359929         1.306432        -2.027456
 C        -2.961230         1.103426        -0.622427
 C        -2.055626         0.023831        -0.027068
 C        -1.369533         2.403145         0.561732
 H         0.101182         0.279831         1.555853
 H         0.027839         2.351138        -1.582409
 H        -0.789730         0.832955        -2.213705
 H        -3.757791         3.277631        -1.481890
 H        -2.561164         3.175139        -2.811918
 H        -3.743507         1.243419         0.176934
 H        -2.527945        -0.281310         0.892687
 H        -1.796853        -0.696341        -0.760539
 H        -0.525976         2.996099         0.721160
 H        -2.077326         2.541959         1.375531
