19
Iteration:  4713
 O         0.402812         0.595470         0.793278
 C        -0.818384         0.944727         0.117223
 C        -0.650631         1.564936        -1.251683
 C        -1.973254         2.247613        -0.836769
 C        -2.955051         2.704528        -1.927547
 O        -3.365283         1.373159        -2.101217
 C        -2.878254         1.076463        -0.673588
 C        -1.986141        -0.050005        -0.126696
 C        -1.426986         2.381182         0.622078
 H         0.864888         1.458193         1.069315
 H         0.026569         2.331126        -1.172477
 H        -0.389797         0.937753        -2.098227
 H        -3.843360         3.198726        -1.602977
 H        -2.642900         3.115876        -2.869214
 H        -3.788981         1.372545        -0.100350
 H        -2.429089        -0.419270         0.776865
 H        -1.780101        -0.865802        -0.949954
 H        -0.678720         3.076345         0.760276
 H        -2.284467         2.454716         1.257744
