19
Iteration:  1829charge 0 multiplicity 1
 O         0.380386         0.488873         0.825133
 C        -0.722631         0.931959         0.106604
 C        -0.664399         1.616303        -1.325423
 C        -1.955280         2.303696        -0.841223
 C        -2.896384         2.629533        -2.142409
 O        -3.611799         1.351460        -1.959042
 C        -2.873462         1.148505        -0.649290
 C        -1.977984         0.070012         0.003319
 C        -1.332938         2.435280         0.627730
 H         0.945597         0.208550         0.059427
 H         0.200384         2.243834        -1.374224
 H        -0.697620         0.946756        -2.176177
 H        -3.539937         3.558218        -2.039280
 H        -2.331861         2.752964        -3.108274
 H        -3.705000         1.477827         0.126991
 H        -2.277866        -0.389046         0.986393
 H        -1.776554        -0.836434        -0.577509
 H        -0.481919         3.079879         0.698731
 H        -2.177367         2.486314         1.424931
