19
Iteration:  2393charge 0 multiplicity 1
 O         0.276400         0.400743         0.760384
 C        -0.719718         1.074967         0.079945
 C        -0.594760         1.558955        -1.351456
 C        -1.922915         2.324625        -0.935510
 C        -3.059166         2.643562        -1.890121
 O        -3.482650         1.241569        -1.961853
 C        -2.866723         1.163511        -0.655812
 C        -1.981286         0.160568         0.007926
 C        -1.197278         2.424603         0.458178
 H        -0.170482         0.348869         1.602263
 H         0.255754         2.159112        -1.544123
 H        -0.700757         0.862391        -2.138878
 H        -3.856188         3.386892        -1.349370
 H        -2.700149         3.076622        -2.803720
 H        -3.703363         1.517687        -0.058010
 H        -2.504879        -0.233282         0.943530
 H        -1.587112        -0.733411        -0.520436
 H        -0.385031         3.259777         0.393781
 H        -1.857326         2.459526         1.356739
