19
Iteration:  2326charge 0 multiplicity 1
 O         0.475682         0.599858         0.673683
 C        -0.764373         0.928499         0.117410
 C        -0.705798         1.520668        -1.324281
 C        -1.927391         2.323311        -0.894548
 C        -2.875730         2.691002        -2.110811
 O        -3.526012         1.399123        -1.952703
 C        -2.927819         1.158301        -0.598272
 C        -2.043602        -0.017195         0.069062
 C        -1.316958         2.384001         0.563617
 H         0.213166         0.108311         1.529331
 H         0.168386         2.158251        -1.314397
 H        -0.737201         0.975246        -2.228716
 H        -3.719731         3.430147        -1.836649
 H        -2.571543         2.524116        -3.101543
 H        -3.689041         1.447656         0.180792
 H        -2.533444        -0.359746         0.995573
 H        -1.818232        -0.977967        -0.515165
 H        -0.373013         3.081872         0.700655
 H        -2.004397         2.370814         1.403691
