19
Iteration:  3198
 O         0.269521         0.319877         0.789913
 C        -0.742466         1.001398         0.149109
 C        -0.622706         1.677816        -1.313008
 C        -1.950279         2.311442        -0.913919
 C        -2.981917         2.734036        -1.993520
 O        -3.443622         1.222838        -1.984429
 C        -2.884316         1.142186        -0.664145
 C        -1.976329         0.027631        -0.044904
 C        -1.346963         2.493743         0.524699
 H         0.986628         1.042042         0.887127
 H         0.154870         2.529476        -1.213966
 H        -0.483246         1.007661        -2.222029
 H        -3.863438         3.290100        -1.713237
 H        -2.551325         3.145399        -2.959379
 H        -3.616924         1.406914         0.042514
 H        -2.398591        -0.283155         0.920282
 H        -1.574184        -0.862844        -0.485873
 H        -0.482600         3.258166         0.690978
 H        -1.947127         2.704974         1.453645
