19
Iteration:  2541charge 0 multiplicity 1
 O         0.440953         0.459892         0.868320
 C        -0.718814         0.911664         0.104519
 C        -0.692151         1.500088        -1.407593
 C        -1.945653         2.280936        -0.886226
 C        -3.021423         2.700018        -2.011312
 O        -3.628870         1.419661        -2.015016
 C        -2.815092         1.140917        -0.627296
 C        -1.940522        -0.001547        -0.023509
 C        -1.304322         2.491950         0.532524
 H         0.451230         0.850350         1.710488
 H         0.250001         2.122949        -1.468044
 H        -0.885363         0.862340        -2.303825
 H        -3.739974         3.545494        -1.696332
 H        -2.462094         2.762276        -3.046423
 H        -3.629351         1.413168         0.025174
 H        -2.325151        -0.333778         0.872897
 H        -1.533755        -0.851757        -0.625862
 H        -0.406101         3.139196         0.601988
 H        -2.074465         2.721895         1.324103
