19
Iteration:  4278charge 0 multiplicity 1
 O         0.244590         0.323481         0.823137
 C        -0.696360         1.041904         0.105216
 C        -0.604292         1.734347        -1.261961
 C        -1.911300         2.367302        -0.936500
 C        -3.038559         2.630425        -1.916358
 O        -3.401057         1.209546        -2.013244
 C        -2.902924         1.122122        -0.690883
 C        -1.931333         0.115286        -0.076831
 C        -1.384936         2.423840         0.495948
 H         0.934539         0.948670         1.002117
 H         0.035118         2.528277        -1.080322
 H        -0.471120         1.025108        -2.084103
 H        -3.940806         3.219349        -1.512018
 H        -2.768815         3.069514        -2.857013
 H        -3.744494         1.479271        -0.180727
 H        -2.169280        -0.287668         0.888926
 H        -1.670166        -0.739426        -0.764216
 H        -0.651713         3.178230         0.867498
 H        -2.029459         2.411447         1.355988
