19
Iteration:  1382
 O         0.434536         0.694482         0.814431
 C        -0.752640         0.922865         0.134957
 C        -0.711382         1.524221        -1.310835
 C        -2.003074         2.306540        -0.791420
 C        -2.921466         2.752980        -1.943199
 O        -3.479583         1.368568        -2.084567
 C        -2.875546         1.077460        -0.748667
 C        -1.952854        -0.047808        -0.116616
 C        -1.347383         2.340943         0.594616
 H         0.209129         0.129185         1.584722
 H         0.138901         2.263940        -1.230724
 H        -0.642907         0.950663        -2.265741
 H        -3.766868         3.338332        -1.551281
 H        -2.537749         3.096201        -2.925791
 H        -3.874859         1.296247        -0.100606
 H        -2.393043        -0.425567         0.730946
 H        -1.697195        -0.861960        -0.704386
 H        -0.509694         2.994598         0.636972
 H        -2.042754         2.287366         1.538257
