19
Iteration:   491charge 0 multiplicity 1
 O         0.351391         0.467003         0.789287
 C        -0.790034         1.039978         0.100211
 C        -0.598173         1.705926        -1.217016
 C        -1.965759         2.352539        -0.781883
 C        -3.005915         2.706147        -1.826703
 O        -3.284869         1.235074        -2.102525
 C        -2.941230         1.085443        -0.665574
 C        -1.998607        -0.007611        -0.273788
 C        -1.438613         2.427302         0.595138
 H         1.147090         0.540930         0.334150
 H         0.204164         2.415524        -1.106187
 H        -0.523611         1.074663        -2.086016
 H        -3.893136         3.039581        -1.097991
 H        -2.927421         3.260121        -2.718999
 H        -3.905086         1.240392        -0.145866
 H        -2.432700        -0.444525         0.613242
 H        -1.740350        -0.897746        -0.840631
 H        -0.621834         3.139325         0.659519
 H        -2.121898         2.276582         1.456098
