19
Iteration:  1461charge 0 multiplicity 1
 O         0.382542         0.538405         0.705871
 C        -0.779018         1.011028         0.143860
 C        -0.705512         1.656098        -1.272841
 C        -2.016664         2.283303        -0.803938
 C        -2.942576         2.678178        -1.989932
 O        -3.331721         1.266030        -2.076948
 C        -2.921125         1.128936        -0.661598
 C        -1.927637         0.117918        -0.093486
 C        -1.375750         2.356001         0.639477
 H         0.135040        -0.368559         1.104531
 H         0.238381         2.143978        -1.262599
 H        -0.895688         0.911342        -2.053864
 H        -3.780749         3.349132        -1.675133
 H        -2.618838         2.947522        -2.997809
 H        -3.841621         1.373378         0.072683
 H        -2.306477        -0.330814         0.752283
 H        -1.713959        -0.637089        -0.815475
 H        -0.641519         3.132719         0.877665
 H        -1.974822         2.431058         1.611872
