19
Iteration:  3080
 O         0.204376         0.339434         0.822281
 C        -0.785513         0.913949         0.052697
 C        -0.532750         1.712553        -1.276598
 C        -1.908950         2.334025        -0.903198
 C        -2.990665         2.683731        -2.013181
 O        -3.429655         1.274526        -1.892208
 C        -2.886474         1.099157        -0.655472
 C        -1.951948         0.026453        -0.104264
 C        -1.370206         2.550158         0.523699
 H         0.972515         0.871366         0.958149
 H         0.205061         2.452240        -1.232627
 H        -0.656210         1.169034        -2.161795
 H        -3.796650         3.457778        -1.897604
 H        -2.719357         2.886373        -3.108204
 H        -3.559093         1.364911         0.319479
 H        -2.217390        -0.548577         0.877997
 H        -1.630812        -0.697907        -0.873495
 H        -0.597279         3.269610         0.497938
 H        -1.899449         2.695992         1.480025
