19
Iteration:  3095
 O         0.184981         0.251985         0.852174
 C        -0.697934         1.085015         0.094522
 C        -0.561041         1.719736        -1.342453
 C        -1.943881         2.327680        -0.893903
 C        -2.984402         2.626874        -1.945477
 O        -3.452237         1.207500        -2.000259
 C        -2.867258         1.177216        -0.572794
 C        -1.954839         0.066524        -0.106089
 C        -1.361239         2.563588         0.508374
 H         1.074954         0.454620         0.536880
 H         0.206455         2.539005        -1.215596
 H        -0.317998         1.077866        -2.254125
 H        -3.752631         3.238498        -1.510492
 H        -2.596644         3.010507        -2.857735
 H        -3.719406         1.480925         0.030042
 H        -2.262823        -0.391406         0.875124
 H        -1.801410        -0.744233        -0.826749
 H        -0.510771         3.262311         0.666517
 H        -2.218303         2.506180         1.244598
