19
Iteration:  2192
 O         0.494765         0.572188         0.700350
 C        -0.757736         0.971648         0.164431
 C        -0.558009         1.531029        -1.269314
 C        -1.944926         2.202360        -0.923181
 C        -2.851212         2.678670        -2.019961
 O        -3.588208         1.351617        -1.913017
 C        -2.974048         1.153015        -0.573248
 C        -2.101611        -0.010516        -0.119477
 C        -1.362618         2.505901         0.499128
 H         0.315847         0.178042         1.618173
 H         0.236486         2.274849        -1.301630
 H        -0.571729         0.710270        -1.986036
 H        -3.589987         3.507620        -1.819294
 H        -2.363578         2.663496        -2.981992
 H        -3.743340         1.415154         0.286750
 H        -2.410464        -0.613236         0.763627
 H        -1.892977        -0.636871        -1.031508
 H        -0.645542         3.311099         0.467495
 H        -1.852573         2.622993         1.504983
