19
Iteration:  2086
 O         0.551303         0.542126         0.674535
 C        -0.722908         0.974531         0.101415
 C        -0.734128         1.532220        -1.313170
 C        -2.000801         2.261537        -0.863640
 C        -2.828870         2.635352        -2.097265
 O        -3.494867         1.369525        -1.982098
 C        -2.961028         1.211970        -0.539080
 C        -2.063997         0.056982         0.034917
 C        -1.392292         2.350608         0.594958
 H         0.398078         0.614577         1.674273
 H         0.124744         2.182435        -1.646249
 H        -1.032576         0.927221        -2.159252
 H        -3.541462         3.474511        -2.153323
 H        -2.249443         2.754141        -2.998159
 H        -3.729996         1.427925         0.144484
 H        -2.317087        -0.331124         0.986952
 H        -1.989063        -0.867917        -0.644899
 H        -0.561463         3.165578         0.582657
 H        -2.165214         2.385124         1.336712
