19
Iteration:   136charge 0 multiplicity 1
 O         0.462185         0.326656         0.727511
 C        -0.720082         1.007061         0.084544
 C        -0.683839         1.806755        -1.333692
 C        -2.102152         2.401141        -0.772168
 C        -3.120257         2.742861        -1.886071
 O        -3.196235         1.240159        -2.104321
 C        -2.917199         1.120506        -0.716609
 C        -1.885432         0.062226        -0.063176
 C        -1.518568         2.290472         0.651914
 H         0.638113         0.672902         1.571727
 H         0.292657         2.442159        -1.348659
 H        -0.655912         1.272658        -2.358437
 H        -4.045639         3.204730        -1.602425
 H        -2.700035         3.293327        -2.779641
 H        -3.889090         1.133404        -0.152014
 H        -2.283725        -0.366729         0.862244
 H        -1.704236        -0.778346        -0.709851
 H        -0.784268         3.256033         0.705518
 H        -2.355429         2.216401         1.478571
