19
Iteration:  2435charge 0 multiplicity 1
 O         0.448775         0.528150         0.643793
 C        -0.826576         0.993775         0.168165
 C        -0.765626         1.519986        -1.294605
 C        -1.982034         2.279421        -0.842199
 C        -2.817985         2.675393        -2.028276
 O        -3.484186         1.349424        -1.929473
 C        -2.909951         1.124249        -0.660754
 C        -2.058011         0.025564         0.039342
 C        -1.304125         2.509602         0.508105
 H         0.593488        -0.187759         1.227241
 H         0.149440         2.181229        -1.414353
 H        -0.764702         0.764612        -2.088219
 H        -3.669910         3.329884        -2.030250
 H        -2.374810         2.917655        -2.967331
 H        -3.528409         1.419243         0.155148
 H        -2.462185        -0.332268         1.040789
 H        -1.786401        -0.913703        -0.607058
 H        -0.343451         3.159725         0.435519
 H        -1.891894         2.686085         1.362261
