19
Iteration:   863
 O         0.267580         0.447168         0.869064
 C        -0.777205         1.032250         0.114240
 C        -0.576724         1.594151        -1.407074
 C        -1.998995         2.304722        -0.904982
 C        -3.009515         2.770748        -1.880581
 O        -3.466453         1.281233        -2.036034
 C        -2.845921         1.039477        -0.686620
 C        -1.896868        -0.001453        -0.002988
 C        -1.319311         2.522931         0.568654
 H         0.976589         0.295126         0.296046
 H         0.208351         2.378397        -1.301626
 H        -0.696047         0.814738        -2.194451
 H        -3.868483         3.434925        -1.391750
 H        -2.678887         3.199676        -2.830780
 H        -3.787291         1.225464        -0.200779
 H        -2.270722        -0.693744         0.743479
 H        -1.555562        -0.687516        -0.708863
 H        -0.570998         3.326190         0.534687
 H        -2.098200         2.492614         1.345532
