19
Iteration:  4097
 O         0.462256         0.498867         0.726750
 C        -0.769485         1.048700         0.199009
 C        -0.600151         1.614776        -1.211664
 C        -2.006289         2.251037        -0.912437
 C        -2.928548         2.676339        -2.011607
 O        -3.600692         1.364651        -2.065452
 C        -2.899119         1.063252        -0.691543
 C        -1.924947        -0.041141        -0.020624
 C        -1.359557         2.418817         0.560844
 H         0.522387         0.941306         1.638659
 H         0.209316         2.359619        -1.207099
 H        -0.597709         1.016512        -2.137682
 H        -3.627696         3.451868        -1.845177
 H        -2.465137         2.985998        -2.976665
 H        -3.696514         1.201776        -0.035845
 H        -2.484689        -0.419166         0.821861
 H        -1.599389        -0.796807        -0.677464
 H        -0.611126         3.248667         0.759973
 H        -2.192660         2.404493         1.350293
