19
Iteration:  1361
 O         0.478885         0.645218         0.844679
 C        -0.696361         1.012898         0.159103
 C        -0.647981         1.593867        -1.336362
 C        -2.039599         2.158198        -0.851762
 C        -2.909465         2.781277        -1.902218
 O        -3.409854         1.406029        -2.132785
 C        -3.051923         0.973765        -0.603555
 C        -1.995313        -0.016142        -0.113475
 C        -1.393784         2.370638         0.513334
 H         0.196167        -0.153932         1.424247
 H         0.026260         2.442630        -1.572190
 H        -0.777610         0.871316        -2.138793
 H        -3.671813         3.494910        -1.551922
 H        -2.249841         3.117639        -2.714663
 H        -3.989085         1.338667         0.026447
 H        -2.146798        -0.573194         0.801819
 H        -1.688808        -0.752336        -0.795145
 H        -0.607006         3.087487         0.456942
 H        -1.992598         2.415363         1.510017
