19
Iteration:   640charge 0 multiplicity 1
 O         0.427747         0.491413         0.805897
 C        -0.755109         1.046328         0.154081
 C        -0.694475         1.700165        -1.247964
 C        -1.999820         2.358263        -0.835270
 C        -3.027911         2.690163        -1.927226
 O        -3.365030         1.188457        -2.101798
 C        -2.919848         1.125787        -0.696518
 C        -1.993420         0.045198        -0.137479
 C        -1.327168         2.393572         0.647879
 H         0.682325        -0.250275         0.257472
 H         0.028416         2.517837        -1.326246
 H        -0.688646         1.073296        -2.174220
 H        -3.811860         3.310967        -1.497495
 H        -2.702903         3.096024        -2.921387
 H        -3.791380         1.346605        -0.150485
 H        -2.484660        -0.378726         0.670740
 H        -1.666175        -0.628985        -0.902814
 H        -0.470119         2.917328         0.976077
 H        -2.094606         2.400468         1.537354
