19
Iteration:  1332charge 0 multiplicity 1
 O         0.366438         0.476482         0.720398
 C        -0.776621         1.003239         0.182845
 C        -0.643998         1.654822        -1.222374
 C        -1.938723         2.384256        -0.913850
 C        -3.054109         2.745483        -1.941087
 O        -3.394414         1.232927        -2.091465
 C        -2.859477         1.046605        -0.652871
 C        -1.937687         0.030222        -0.106868
 C        -1.382776         2.499806         0.606619
 H         0.137506        -0.234497         1.266222
 H         0.246804         2.223116        -1.386148
 H        -0.713584         0.979246        -2.091569
 H        -3.923855         3.368486        -1.619753
 H        -2.663222         3.171168        -2.889414
 H        -3.681343         1.275005        -0.086015
 H        -2.279190        -0.433209         0.968898
 H        -1.536843        -0.922611        -0.655240
 H        -0.466636         3.046859         0.909128
 H        -2.161522         2.402991         1.306642
