19
Iteration:  1974
 O         0.512366         0.556306         0.849181
 C        -0.766065         0.964156         0.076101
 C        -0.724964         1.516523        -1.313047
 C        -2.021141         2.230643        -0.852238
 C        -2.851936         2.658842        -2.042758
 O        -3.481661         1.351619        -1.964575
 C        -2.963947         1.199092        -0.624651
 C        -2.065986         0.078213         0.016895
 C        -1.298393         2.410508         0.506994
 H         1.006597         0.136046         0.104468
 H         0.089223         2.131206        -1.610115
 H        -0.952677         0.739365        -2.050237
 H        -3.735719         3.359415        -1.911619
 H        -2.313188         2.928873        -2.951694
 H        -3.807182         1.560055         0.101252
 H        -2.433973        -0.395626         0.956246
 H        -1.966566        -0.844507        -0.584241
 H        -0.525603         3.177787         0.489379
 H        -2.154098         2.584573         1.326808
