19
Iteration:  4597
 O         0.312078         0.488288         0.855532
 C        -0.690086         1.015333         0.090694
 C        -0.686634         1.688344        -1.262474
 C        -1.988926         2.298598        -0.757465
 C        -2.921912         2.677578        -1.979851
 O        -3.457345         1.308618        -2.114686
 C        -2.925251         1.009798        -0.749927
 C        -1.916602         0.003343        -0.140374
 C        -1.415721         2.429968         0.651822
 H         1.018715         1.176800         0.878226
 H         0.232554         2.373883        -1.434275
 H        -0.724753         0.955549        -2.106530
 H        -3.700937         3.386228        -1.595179
 H        -2.440168         2.986191        -2.909588
 H        -3.727515         1.190920        -0.026397
 H        -2.146260        -0.341805         0.899646
 H        -1.750978        -0.833104        -0.738829
 H        -0.518719         3.175124         0.591663
 H        -1.997093         2.295311         1.579052
