19
Iteration:  3943
 O         0.312796         0.382407         0.880152
 C        -0.729123         1.043482         0.085952
 C        -0.649175         1.590120        -1.434188
 C        -1.923718         2.286084        -0.851632
 C        -3.041583         2.727651        -1.896546
 O        -3.412056         1.188128        -2.058132
 C        -2.909202         1.081754        -0.674443
 C        -1.959533         0.107646         0.002039
 C        -1.270644         2.551379         0.466933
 H         0.367993         0.747839         1.755026
 H         0.135155         2.258576        -1.591788
 H        -0.746557         0.892759        -2.276624
 H        -4.048903         3.247911        -1.515460
 H        -2.654497         3.062992        -2.908753
 H        -3.702500         1.499455         0.127494
 H        -2.445883        -0.228701         0.867477
 H        -1.634850        -0.740940        -0.488569
 H        -0.563598         3.444219         0.392369
 H        -1.932422         2.614662         1.326911
