19
Iteration:  1139
 O         0.464797         0.592746         0.672510
 C        -0.782933         0.958478         0.131430
 C        -0.675692         1.497184        -1.302535
 C        -1.980344         2.253100        -0.863154
 C        -2.912316         2.777279        -1.950241
 O        -3.396802         1.303589        -2.088571
 C        -2.940710         1.170280        -0.664938
 C        -1.971876         0.037791        -0.015449
 C        -1.458398         2.377102         0.657226
 H         0.433916         0.283989         1.619041
 H         0.257099         2.043093        -1.475689
 H        -0.747671         0.848192        -2.206040
 H        -3.637145         3.547683        -1.724635
 H        -2.476104         3.070770        -2.923443
 H        -3.826412         1.126139         0.004192
 H        -2.433769        -0.229633         1.118566
 H        -1.717133        -0.867984        -0.630093
 H        -0.629040         3.156369         0.814951
 H        -2.253318         2.424849         1.364377
