19
Iteration:  4436charge 0 multiplicity 1
 O         0.346108         0.548266         0.877379
 C        -0.771592         0.966558         0.117821
 C        -0.658317         1.603338        -1.323648
 C        -1.955099         2.239286        -0.865930
 C        -3.023383         2.750791        -1.942376
 O        -3.407765         1.393194        -2.124254
 C        -2.913211         0.989651        -0.748628
 C        -1.897814         0.013026        -0.069572
 C        -1.404607         2.376066         0.637322
 H         0.943750         1.264224         0.850640
 H         0.311876         2.161641        -1.389394
 H        -0.752687         0.805679        -2.013599
 H        -3.712656         3.413705        -1.314433
 H        -2.526566         3.305441        -2.839522
 H        -3.881100         1.226291        -0.217536
 H        -2.242450        -0.441243         1.002967
 H        -1.585745        -0.862305        -0.693533
 H        -0.515968         2.958035         0.758506
 H        -2.180710         2.434548         1.364069
