19
Iteration:  3094charge 0 multiplicity 1
 O         0.179367         0.253910         0.852052
 C        -0.700863         1.075282         0.091176
 C        -0.558576         1.721636        -1.347666
 C        -1.941901         2.334257        -0.896044
 C        -2.984311         2.633463        -1.947350
 O        -3.452171         1.208535        -1.992623
 C        -2.863139         1.173835        -0.577985
 C        -1.953133         0.054062        -0.105880
 C        -1.361959         2.572304         0.510680
 H         1.094853         0.485872         0.541978
 H         0.198160         2.512145        -1.226572
 H        -0.290189         1.118396        -2.230772
 H        -3.750139         3.245946        -1.501222
 H        -2.581221         2.962807        -2.883834
 H        -3.763605         1.498660         0.031185
 H        -2.245854        -0.429005         0.914071
 H        -1.809075        -0.745619        -0.830511
 H        -0.544609         3.252479         0.649757
 H        -2.198825         2.506999         1.286834
