19
Iteration:  1840
 O         0.382510         0.525881         0.801359
 C        -0.785349         1.064167         0.175317
 C        -0.591179         1.536298        -1.315430
 C        -1.913041         2.222968        -0.956942
 C        -2.891593         2.702842        -2.062517
 O        -3.616507         1.356419        -1.961175
 C        -2.982339         1.150163        -0.628381
 C        -1.948549         0.037492        -0.033141
 C        -1.332668         2.360181         0.588617
 H         1.214480         0.417725         0.245374
 H         0.226777         2.212181        -1.424216
 H        -0.690232         0.819731        -2.115029
 H        -3.489452         3.654985        -1.937084
 H        -2.345195         2.594852        -3.038327
 H        -3.802380         1.380545         0.232551
 H        -2.529770        -0.214047         0.890491
 H        -1.643031        -0.797828        -0.665819
 H        -0.585154         3.120556         0.760952
 H        -1.899270         2.403030         1.623764
