19
Iteration:  1935charge 0 multiplicity 1
 O         0.369863         0.354109         0.690107
 C        -0.772442         0.968086         0.184069
 C        -0.710915         1.566555        -1.309808
 C        -1.911612         2.326600        -0.904840
 C        -2.957947         2.654413        -2.060376
 O        -3.431112         1.283489        -1.957309
 C        -2.901710         1.144885        -0.582317
 C        -2.058966         0.100798         0.048946
 C        -1.348518         2.517110         0.504708
 H         1.053621         1.073997         0.819814
 H         0.163702         2.293390        -1.306794
 H        -0.721293         0.875417        -2.183970
 H        -3.757630         3.348046        -1.869072
 H        -2.361459         2.880873        -2.966577
 H        -3.603268         1.482244         0.105964
 H        -2.365722        -0.077510         1.048608
 H        -1.784850        -0.786359        -0.575108
 H        -0.452578         3.229439         0.472854
 H        -1.865398         2.721530         1.386699
