19
Iteration:  4144charge 0 multiplicity 1
 O         0.261933         0.426190         0.772643
 C        -0.736518         1.026084         0.094206
 C        -0.706057         1.673939        -1.307127
 C        -1.994214         2.344089        -0.772773
 C        -2.963649         2.655049        -1.966993
 O        -3.320375         1.181375        -2.037142
 C        -2.921874         1.145530        -0.650149
 C        -1.967375         0.029125        -0.080520
 C        -1.350627         2.462672         0.582894
 H         0.980718         1.032284         0.714747
 H         0.216235         2.300961        -1.281397
 H        -0.681502         1.054225        -2.180981
 H        -3.804341         3.446820        -1.835740
 H        -2.599325         2.980353        -2.990383
 H        -3.759227         1.431864         0.049536
 H        -2.217366        -0.511596         0.820738
 H        -1.667672        -0.650685        -0.832079
 H        -0.448929         3.126701         0.656637
 H        -2.017769         2.615249         1.540175
