19
Iteration:  4856
 O         0.308842         0.406190         0.869400
 C        -0.736726         1.046196         0.153026
 C        -0.665397         1.629410        -1.273001
 C        -2.066285         2.315312        -0.795355
 C        -3.049061         2.730350        -1.927368
 O        -3.282988         1.244919        -2.149897
 C        -2.899717         1.051377        -0.665542
 C        -1.950746         0.040959        -0.151914
 C        -1.363052         2.449566         0.564563
 H         0.984965         1.165400         0.839167
 H         0.169863         2.333225        -1.406414
 H        -0.719381         1.151961        -2.252308
 H        -3.863856         3.237159        -1.491898
 H        -2.704863         3.171045        -2.885365
 H        -3.653586         1.324026         0.112494
 H        -2.341580        -0.465610         0.820973
 H        -1.555221        -0.710850        -0.923698
 H        -0.608979         3.271393         0.555174
 H        -1.964163         2.530893         1.489019
