19
Iteration:  3110charge 0 multiplicity 1
 O         0.273518         0.305294         0.842932
 C        -0.714281         1.043050         0.167124
 C        -0.600238         1.631152        -1.246778
 C        -1.945531         2.293006        -0.916997
 C        -3.035326         2.682625        -1.952707
 O        -3.395223         1.243890        -2.041513
 C        -2.949228         1.147925        -0.681148
 C        -1.946026         0.228151        -0.061874
 C        -1.346185         2.437648         0.534829
 H         1.155728         0.282728         0.337176
 H         0.148007         2.406882        -1.602923
 H        -0.717219         0.871845        -2.101344
 H        -3.903051         3.167212        -1.432218
 H        -2.775425         3.033781        -3.009019
 H        -3.721869         1.427608         0.000017
 H        -2.244961        -0.242984         0.818883
 H        -1.605727        -0.561380        -0.760126
 H        -0.616686         3.333559         0.621512
 H        -1.947060         2.519467         1.423215
