19
Iteration:   127charge 0 multiplicity 1
 O         0.430843         0.365383         0.637755
 C        -0.732370         1.073053         0.102790
 C        -0.703025         1.734651        -1.262178
 C        -2.070915         2.288756        -0.790081
 C        -3.028154         2.764884        -1.863498
 O        -3.234186         1.287453        -2.141727
 C        -2.888699         1.043152        -0.703517
 C        -1.880780         0.025677        -0.048549
 C        -1.543631         2.399932         0.614942
 H         0.322929         0.448279         1.561181
 H        -0.081721         2.633496        -1.095504
 H        -0.679971         1.174340        -2.203938
 H        -3.987491         3.195423        -1.510008
 H        -2.650409         3.289085        -2.717174
 H        -3.764527         1.104419        -0.008018
 H        -2.129574        -0.366082         0.976313
 H        -1.571101        -0.798756        -0.696736
 H        -0.800436         3.254366         0.825355
 H        -2.236433         2.249071         1.539187
