19
Iteration:  2572
 O         0.501429         0.584045         0.656560
 C        -0.766485         0.969098         0.109017
 C        -0.595239         1.494563        -1.313849
 C        -1.938827         2.173250        -0.832951
 C        -2.810947         2.614152        -1.960925
 O        -3.543044         1.346601        -1.936431
 C        -3.040148         1.201249        -0.573077
 C        -2.082737         0.064761        -0.074494
 C        -1.383830         2.434012         0.487490
 H         0.412460         0.444274         1.668125
 H         0.121431         2.251027        -1.203445
 H        -0.471627         0.882701        -2.185060
 H        -3.411719         3.534734        -1.859216
 H        -2.404964         2.785111        -2.963455
 H        -3.783534         1.614832         0.054069
 H        -2.433885        -0.317746         0.872275
 H        -1.723202        -0.688590        -0.792912
 H        -0.649324         3.226138         0.666414
 H        -2.185258         2.557802         1.343471
