19
Iteration:  3567
 O         0.245023         0.489635         0.997203
 C        -0.692957         0.987644         0.042210
 C        -0.554734         1.626666        -1.458407
 C        -1.900252         2.274059        -0.978445
 C        -3.075890         2.635076        -1.915914
 O        -3.405151         1.261945        -1.949305
 C        -2.851161         1.169283        -0.620557
 C        -2.071006         0.078389        -0.047568
 C        -1.311731         2.481479         0.475293
 H         0.992824         0.058683         0.479781
 H         0.302453         2.283586        -1.695539
 H        -0.574646         0.896609        -2.264576
 H        -3.714223         3.343601        -1.458477
 H        -2.878471         2.986365        -2.888172
 H        -3.706380         1.570721         0.085217
 H        -2.496753        -0.289631         0.957647
 H        -1.942746        -0.892161        -0.652250
 H        -0.428283         3.174106         0.680480
 H        -2.114511         2.407945         1.259667
