19
Iteration:  4084charge 0 multiplicity 1
 O         0.401727         0.530567         0.792534
 C        -0.731049         1.019009         0.172471
 C        -0.632725         1.621071        -1.311753
 C        -1.942603         2.173212        -0.891095
 C        -2.980371         2.730444        -1.968289
 O        -3.494243         1.367252        -2.011021
 C        -2.925041         0.992199        -0.719197
 C        -1.959536         0.031151        -0.078134
 C        -1.416515         2.466013         0.547166
 H         0.391232         0.483353         1.735930
 H         0.084644         2.438349        -1.489173
 H        -0.388677         0.780743        -2.052188
 H        -3.623074         3.391984        -1.529770
 H        -2.659240         3.021195        -2.934920
 H        -3.656969         1.225539        -0.022770
 H        -2.269449        -0.501073         0.846641
 H        -1.498637        -0.852126        -0.669747
 H        -0.474990         3.076710         0.407900
 H        -1.988400         2.769399         1.406961
