19
Iteration:  3251
 O         0.281390         0.428971         0.952639
 C        -0.717697         1.002776         0.126934
 C        -0.652044         1.632821        -1.340611
 C        -1.945110         2.348140        -0.893410
 C        -3.019396         2.705044        -1.964873
 O        -3.522652         1.363330        -1.988061
 C        -2.839916         1.076601        -0.720614
 C        -1.916197        -0.067057        -0.133877
 C        -1.362446         2.440142         0.511967
 H         1.153646         0.954636         0.950865
 H         0.313189         2.213710        -1.415012
 H        -0.675660         0.955042        -2.246754
 H        -3.776647         3.388213        -1.673642
 H        -2.588898         2.900267        -2.913999
 H        -3.618547         1.349891         0.109305
 H        -2.350744        -0.476524         0.732997
 H        -1.458273        -0.872839        -0.739258
 H        -0.451393         3.158881         0.534344
 H        -1.878229         2.682147         1.428081
