19
Iteration:  2550
 O         0.423390         0.521342         0.771380
 C        -0.748761         1.000713         0.126213
 C        -0.670784         1.509455        -1.345256
 C        -1.920728         2.264769        -0.906296
 C        -2.920423         2.724007        -2.067794
 O        -3.648665         1.417058        -1.967284
 C        -2.870462         1.067627        -0.611654
 C        -1.939968         0.003059        -0.007975
 C        -1.301470         2.373225         0.551205
 H         0.363464         0.914999         1.613556
 H         0.189664         2.113163        -1.457939
 H        -0.691503         0.702918        -2.054656
 H        -3.623132         3.593317        -1.974202
 H        -2.560171         2.978644        -3.088665
 H        -3.588537         1.391345         0.087377
 H        -2.356154        -0.290122         0.955284
 H        -1.776495        -0.825997        -0.695973
 H        -0.468612         3.072371         0.646532
 H        -2.029636         2.614639         1.460720
