19
Iteration:  2202charge 0 multiplicity 1
 O         0.554385         0.558755         0.704717
 C        -0.745878         0.995998         0.199038
 C        -0.616336         1.485725        -1.257974
 C        -1.947103         2.262072        -0.899669
 C        -2.902054         2.632092        -2.034975
 O        -3.602823         1.423500        -1.938716
 C        -2.913528         1.137741        -0.608815
 C        -2.118979        -0.104672        -0.078282
 C        -1.379420         2.532542         0.511011
 H         0.575172         0.229127         1.676189
 H         0.105946         2.298573        -1.484341
 H        -0.552181         0.870814        -2.210875
 H        -3.381126         3.592251        -1.920671
 H        -2.336995         2.851416        -2.966128
 H        -3.756979         1.466857         0.087821
 H        -2.496236        -0.644594         0.843007
 H        -1.780680        -0.848207        -0.843728
 H        -0.519188         3.063859         0.597437
 H        -2.218468         2.705229         1.223048
