19
Iteration:  2320charge 0 multiplicity 1
 O         0.488986         0.554872         0.694175
 C        -0.742831         0.935876         0.132481
 C        -0.730288         1.564251        -1.331340
 C        -1.947116         2.326854        -0.876827
 C        -2.902538         2.675449        -2.086213
 O        -3.501800         1.389455        -1.941763
 C        -2.891412         1.138335        -0.592148
 C        -2.074731        -0.029736         0.069294
 C        -1.337730         2.398700         0.495810
 H         0.359917         0.045295         1.480942
 H         0.216802         2.157266        -1.315528
 H        -0.781108         1.069971        -2.360826
 H        -3.523674         3.561108        -2.060010
 H        -2.505433         2.739910        -3.184634
 H        -3.680462         1.505704         0.131416
 H        -2.349320        -0.211285         1.136698
 H        -1.984598        -0.937357        -0.462302
 H        -0.582091         3.108534         0.733979
 H        -2.056335         2.335162         1.347448
