19
Iteration:  4563charge 0 multiplicity 1
 O         0.410036         0.572828         0.812525
 C        -0.755218         0.936711         0.143495
 C        -0.718873         1.564500        -1.243941
 C        -1.998521         2.280006        -0.842617
 C        -2.888621         2.751168        -1.916016
 O        -3.440587         1.335958        -2.165759
 C        -2.881734         1.022734        -0.720018
 C        -1.936645        -0.001848        -0.087682
 C        -1.475251         2.385418         0.630608
 H         1.013250         1.373962         0.942978
 H         0.186151         2.222768        -1.372399
 H        -0.815300         0.827584        -2.105133
 H        -3.681040         3.453125        -1.526039
 H        -2.455517         3.211804        -2.788614
 H        -3.741781         1.250422        -0.161399
 H        -2.245290        -0.484249         0.804231
 H        -1.680596        -0.737256        -0.800375
 H        -0.736270         3.245429         0.788609
 H        -2.112141         2.421414         1.521837
