19
Iteration:    96
 O         0.543347         0.645986         0.744223
 C        -0.796749         1.023418         0.186648
 C        -0.704417         1.611833        -1.164893
 C        -2.048612         2.282620        -0.761835
 C        -2.963237         2.781152        -1.924684
 O        -3.408612         1.308216        -2.103657
 C        -2.940199         1.013245        -0.768053
 C        -1.949135        -0.057775        -0.207496
 C        -1.456163         2.387972         0.646041
 H         0.493160        -0.387610         0.723085
 H         0.119874         2.327431        -1.140909
 H        -0.565552         1.117633        -2.092614
 H        -3.941340         3.329582        -1.731047
 H        -2.464054         3.086339        -2.803309
 H        -3.862207         1.206601        -0.137948
 H        -2.298634        -0.642337         0.695885
 H        -1.464684        -0.718532        -0.955919
 H        -0.618653         3.014809         0.681503
 H        -1.863387         2.493568         1.664089
