19
Iteration:  3468
 O         0.357332         0.371470         0.714779
 C        -0.775719         0.979939         0.135883
 C        -0.603611         1.646807        -1.263335
 C        -1.880522         2.418983        -0.916464
 C        -3.051828         2.688010        -1.969530
 O        -3.350396         1.126277        -2.005373
 C        -2.894081         1.145592        -0.656501
 C        -2.037556         0.136973        -0.076378
 C        -1.358091         2.493291         0.569382
 H         0.303566         0.553588         1.654680
 H         0.102487         2.438597        -1.203993
 H        -0.577173         1.042341        -2.161837
 H        -3.878447         3.204699        -1.528687
 H        -2.908141         2.994995        -2.971090
 H        -3.694697         1.568447         0.071047
 H        -2.376404        -0.120088         0.969907
 H        -1.915666        -0.820231        -0.767094
 H        -0.377751         3.071154         0.665070
 H        -2.178314         2.573087         1.258809
