19
Iteration:  4462charge 0 multiplicity 1
 O         0.463643         0.603350         0.820460
 C        -0.730733         0.955015         0.120295
 C        -0.655594         1.597392        -1.255772
 C        -1.937167         2.184145        -0.831202
 C        -2.944505         2.752008        -1.926735
 O        -3.389592         1.312239        -2.042131
 C        -2.930718         1.080144        -0.751016
 C        -2.111871        -0.022524        -0.149105
 C        -1.454497         2.385941         0.585420
 H         0.932166         1.392014         0.940230
 H         0.176341         2.208641        -0.999134
 H        -0.564032         0.956533        -2.180533
 H        -3.708475         3.446885        -1.499405
 H        -2.369483         3.116010        -2.794861
 H        -3.672132         1.535183        -0.128375
 H        -2.476024        -0.472667         0.675646
 H        -1.771125        -0.802939        -0.830746
 H        -0.889319         3.262496         0.800637
 H        -2.273398         2.113120         1.280761
