19
Iteration:  1542
 O         0.274591         0.352120         0.966187
 C        -0.746335         0.973918         0.120082
 C        -0.618083         1.703051        -1.331374
 C        -1.942196         2.321386        -0.893616
 C        -3.023755         2.662369        -1.950704
 O        -3.404322         1.279924        -1.987426
 C        -2.879429         1.170456        -0.634042
 C        -1.956771         0.035709        -0.169944
 C        -1.382057         2.503010         0.464095
 H         1.137295         0.465616         0.556705
 H         0.150302         2.459487        -1.551004
 H        -0.575411         1.026645        -2.161545
 H        -3.800501         3.293273        -1.475736
 H        -2.738976         3.044696        -2.951733
 H        -3.623699         1.302594         0.326549
 H        -2.315846        -0.485382         0.829846
 H        -1.717768        -0.700620        -1.041488
 H        -0.393939         3.077283         0.546680
 H        -2.081583         2.555861         1.237367
