19
Iteration:  4127charge 0 multiplicity 1
 O         0.422228         0.461065         0.738581
 C        -0.795192         1.045402         0.112455
 C        -0.644041         1.659095        -1.285999
 C        -1.998906         2.302167        -0.888765
 C        -2.878559         2.614698        -2.061850
 O        -3.391770         1.271877        -1.951804
 C        -2.928070         1.150746        -0.588256
 C        -2.006838         0.072548        -0.095420
 C        -1.419103         2.364453         0.652836
 H         0.835989         1.198785         1.132494
 H         0.069359         2.437565        -1.545932
 H        -0.702692         1.078879        -2.273006
 H        -3.696174         3.309436        -1.905379
 H        -2.405971         2.858047        -2.978130
 H        -3.817792         1.325403         0.050769
 H        -2.506053        -0.459937         0.756584
 H        -1.912788        -0.773915        -0.943871
 H        -0.688006         3.140164         0.932773
 H        -2.223989         2.239446         1.270892
