19
Iteration:  4413charge 0 multiplicity 1
 O         0.256127         0.322029         0.909080
 C        -0.700784         1.094838         0.158583
 C        -0.661802         1.681866        -1.326886
 C        -2.041583         2.299396        -0.805352
 C        -3.025829         2.743438        -1.921246
 O        -3.360746         1.231382        -2.098676
 C        -2.871688         1.083286        -0.686434
 C        -1.861256         0.054871        -0.141108
 C        -1.386725         2.476252         0.509331
 H         1.139240         0.824638         0.971467
 H        -0.118056         2.626320        -1.563245
 H        -0.714896         0.869895        -2.032254
 H        -3.859779         3.324362        -1.429631
 H        -2.398290         3.322557        -2.666707
 H        -3.867035         1.094052        -0.091066
 H        -2.427363        -0.562203         0.742900
 H        -1.525972        -0.727608        -0.867714
 H        -0.595632         3.237226         0.362861
 H        -1.978546         2.515217         1.388008
