19
Iteration:  2555charge 0 multiplicity 1
 O         0.406990         0.550854         0.718492
 C        -0.747906         1.027636         0.143511
 C        -0.643112         1.511233        -1.285022
 C        -1.925871         2.247004        -0.944579
 C        -2.880649         2.727124        -2.068341
 O        -3.629692         1.405020        -1.933103
 C        -2.940450         1.091713        -0.632380
 C        -1.955104         0.018055        -0.007575
 C        -1.307947         2.346836         0.543540
 H         0.390067         0.915977         1.665060
 H         0.246255         2.215776        -1.543100
 H        -0.650284         0.673496        -2.035554
 H        -3.593646         3.552023        -1.852305
 H        -2.399936         2.912799        -3.085429
 H        -3.665905         1.283864         0.250414
 H        -2.332845        -0.420090         0.943977
 H        -1.844739        -0.883441        -0.652987
 H        -0.464927         3.071522         0.598804
 H        -1.927053         2.347270         1.372461
