19
Iteration:  2877
 O         0.347832         0.451869         0.896124
 C        -0.708492         0.972574         0.062294
 C        -0.638563         1.556921        -1.432528
 C        -1.952605         2.283475        -0.931669
 C        -3.034555         2.707010        -1.856349
 O        -3.399887         1.334310        -2.038897
 C        -2.915539         1.117579        -0.636231
 C        -1.971445         0.059853        -0.035074
 C        -1.306034         2.436346         0.468536
 H         0.107174         0.659340         1.787345
 H         0.166843         2.320038        -1.635684
 H        -0.833919         1.052486        -2.433384
 H        -3.844713         3.325825        -1.301540
 H        -2.773944         3.265976        -2.739507
 H        -3.892283         1.204184         0.001466
 H        -2.288825        -0.345516         0.935859
 H        -1.762747        -0.836083        -0.633160
 H        -0.522223         3.182496         0.439484
 H        -1.803385         2.577978         1.413015
