19
Iteration:  3207
 O         0.187553         0.310598         0.790910
 C        -0.759470         1.046213         0.085586
 C        -0.508005         1.717821        -1.277834
 C        -1.929982         2.299521        -0.878838
 C        -3.037253         2.707002        -1.959830
 O        -3.419570         1.196986        -1.971710
 C        -2.877596         1.102073        -0.621046
 C        -1.988913         0.079178        -0.065806
 C        -1.306288         2.523374         0.485987
 H         0.968114         0.917832         1.031223
 H         0.319384         2.474939        -1.389698
 H        -0.474926         1.047612        -2.204423
 H        -3.788601         3.332299        -1.602539
 H        -2.642340         2.900240        -2.904595
 H        -3.743786         1.275737         0.065369
 H        -2.268135        -0.311225         0.848792
 H        -1.899957        -0.719747        -0.842387
 H        -0.427845         3.300055         0.608963
 H        -2.059966         2.542801         1.286767
