19
Iteration:   333charge 0 multiplicity 1
 O         0.467893         0.624821         0.672708
 C        -0.809692         0.978602         0.182422
 C        -0.695286         1.598417        -1.263324
 C        -2.057727         2.303670        -0.781083
 C        -2.964714         2.745972        -1.966364
 O        -3.319133         1.346375        -2.104288
 C        -2.881151         1.095505        -0.664486
 C        -1.936113        -0.069299        -0.263596
 C        -1.490711         2.302159         0.785752
 H         0.304466         0.629705         1.614417
 H         0.099335         2.477518        -1.240581
 H        -0.766283         1.014153        -2.256522
 H        -3.862126         3.316663        -1.626823
 H        -2.236283         3.115760        -2.813083
 H        -3.754103         1.193841         0.035394
 H        -2.270362        -0.629014         0.636374
 H        -1.693683        -0.555189        -1.174628
 H        -0.571210         2.876648         1.057544
 H        -2.213324         2.159571         1.534796
