19
Iteration:   840
 O         0.329271         0.490554         0.910481
 C        -0.722068         1.001920         0.091275
 C        -0.648262         1.628159        -1.354181
 C        -2.027784         2.318757        -0.801292
 C        -3.041945         2.673536        -1.937728
 O        -3.351084         1.279602        -2.030341
 C        -2.933536         1.128013        -0.677543
 C        -1.974419         0.057878        -0.159164
 C        -1.268451         2.429034         0.536600
 H         1.026031        -0.028900         0.355214
 H         0.171732         2.407715        -1.261667
 H        -0.759771         0.781812        -2.051682
 H        -3.940021         3.097400        -1.262710
 H        -3.022233         3.252619        -2.879923
 H        -3.789276         1.538924        -0.069213
 H        -2.300381        -0.379996         0.791358
 H        -1.845541        -0.850172        -0.654187
 H        -0.465146         3.143702         0.369711
 H        -1.940164         2.464149         1.430368
