19
Iteration:  3367charge 0 multiplicity 1
 O         0.306166         0.316470         0.809358
 C        -0.733819         1.051183         0.190000
 C        -0.633857         1.675039        -1.254160
 C        -1.949732         2.297273        -0.867315
 C        -3.109091         2.696202        -2.018615
 O        -3.390428         1.283252        -2.026944
 C        -2.810853         1.113664        -0.673237
 C        -1.945018         0.048764        -0.083766
 C        -1.408012         2.515603         0.552727
 H         1.181277         0.670646         0.469733
 H         0.160305         2.383030        -1.356234
 H        -0.521944         0.889641        -2.012807
 H        -3.883077         3.281916        -1.658899
 H        -2.603665         2.947952        -2.961525
 H        -3.615348         1.327296         0.060581
 H        -2.472550        -0.440321         0.728665
 H        -1.577089        -0.771941        -0.840499
 H        -0.704969         3.322672         0.787972
 H        -2.147228         2.610041         1.341907
