19
Iteration:  1930
 O         0.369717         0.313298         0.732455
 C        -0.711754         0.991912         0.178005
 C        -0.714628         1.588574        -1.342067
 C        -1.966720         2.323497        -0.927521
 C        -2.965103         2.669758        -2.019229
 O        -3.414884         1.264158        -1.960162
 C        -2.870685         1.169209        -0.590284
 C        -2.052503         0.119512         0.042907
 C        -1.327386         2.510480         0.463725
 H         0.989362         1.006330         1.021585
 H         0.100605         2.314832        -1.304647
 H        -0.721978         1.049533        -2.303339
 H        -3.784659         3.424849        -1.848827
 H        -2.566412         2.766443        -3.041605
 H        -3.802585         1.449300         0.116391
 H        -2.528593        -0.175729         1.045782
 H        -1.893348        -0.861968        -0.444896
 H        -0.474216         3.143597         0.493150
 H        -1.903825         2.752528         1.463783
