19
Iteration:  1734
 O         0.383070         0.651271         0.805119
 C        -0.752943         1.019495         0.112235
 C        -0.645138         1.445783        -1.327091
 C        -1.918100         2.224802        -0.876609
 C        -2.896561         2.720470        -1.950014
 O        -3.523027         1.393885        -2.005253
 C        -2.940083         1.047953        -0.681353
 C        -1.979520         0.059195        -0.060935
 C        -1.308082         2.417822         0.567182
 H         0.217685        -0.318935         1.062658
 H         0.208379         2.197210        -1.460361
 H        -0.766186         0.695725        -2.210636
 H        -3.691922         3.413764        -1.584524
 H        -2.503310         3.075665        -2.934391
 H        -3.820817         1.296402         0.045954
 H        -2.443631        -0.330161         0.993662
 H        -1.741461        -0.811235        -0.719473
 H        -0.465778         3.105084         0.440881
 H        -2.080067         2.334579         1.389521
