19
Iteration:  1355
 O         0.456004         0.595910         0.817772
 C        -0.691240         1.060928         0.177985
 C        -0.658850         1.561318        -1.341117
 C        -2.051261         2.177926        -0.796336
 C        -2.890499         2.735361        -1.890138
 O        -3.404297         1.399071        -2.097862
 C        -3.009168         1.016133        -0.666909
 C        -1.963124         0.020838        -0.116110
 C        -1.450004         2.392693         0.549932
 H         0.249422        -0.227880         1.359032
 H         0.090567         2.327124        -1.553349
 H        -0.679784         0.890572        -2.228008
 H        -3.730343         3.393988        -1.567697
 H        -2.522884         3.130960        -2.870584
 H        -3.819901         1.378247        -0.155696
 H        -2.258951        -0.578262         0.879037
 H        -1.584827        -0.823916        -0.846513
 H        -0.642878         3.151494         0.237883
 H        -1.968239         2.458579         1.442898
