19
Iteration:  4752charge 0 multiplicity 1
 O         0.201549         0.285373         0.916774
 C        -0.669644         1.071602         0.158503
 C        -0.690324         1.748892        -1.348390
 C        -2.012123         2.296590        -0.876641
 C        -3.077265         2.601471        -1.935010
 O        -3.355725         1.273731        -2.085932
 C        -2.848737         1.087425        -0.750749
 C        -1.834504         0.069289        -0.128297
 C        -1.390130         2.517115         0.581527
 H         1.000001         0.809287         0.884464
 H        -0.046331         2.723609        -1.331099
 H        -0.577267         1.111273        -2.255473
 H        -3.759456         3.380289        -1.429991
 H        -2.605954         3.142820        -2.779819
 H        -3.602574         1.168118         0.011862
 H        -2.091160        -0.380110         0.846891
 H        -1.580032        -0.735078        -0.754345
 H        -0.549003         3.288355         0.823134
 H        -2.068952         2.420797         1.498712
