19
Iteration:  3335
 O         0.202144         0.267693         0.785973
 C        -0.684505         1.097300         0.084588
 C        -0.678731         1.770832        -1.346324
 C        -2.032217         2.279226        -0.781846
 C        -2.988462         2.620348        -1.912363
 O        -3.240376         1.203473        -2.055377
 C        -2.958395         1.056711        -0.627813
 C        -1.981676         0.166659        -0.073450
 C        -1.301539         2.530654         0.553955
 H         1.053687         0.657107         0.738806
 H        -0.059330         2.610888        -1.392411
 H        -0.523540         1.079270        -2.164301
 H        -3.876388         3.269782        -1.624753
 H        -2.687125         3.070541        -2.864061
 H        -3.769941         1.267831        -0.013518
 H        -2.345419        -0.252365         0.860967
 H        -1.755548        -0.789929        -0.738956
 H        -0.545135         3.336302         0.590089
 H        -1.987452         2.534516         1.380510
