19
Iteration:  4575charge 0 multiplicity 1
 O         0.422073         0.547596         0.853653
 C        -0.741462         1.025797         0.173155
 C        -0.712691         1.585139        -1.324526
 C        -2.076597         2.182871        -0.778516
 C        -2.856564         2.805227        -1.965109
 O        -3.417914         1.384051        -2.124559
 C        -2.960134         1.035989        -0.677569
 C        -1.894061        -0.030079        -0.058427
 C        -1.457943         2.340450         0.537754
 H         0.896206         1.395782         0.919479
 H         0.007647         2.516429        -1.316124
 H        -0.619857         1.025966        -2.302542
 H        -3.694628         3.508959        -1.716110
 H        -2.265286         3.034633        -2.842785
 H        -3.812458         0.897408        -0.038023
 H        -2.438256        -0.542679         0.773000
 H        -1.638023        -0.762278        -0.745386
 H        -0.537232         3.100638         0.593821
 H        -2.186274         2.167349         1.351522
