19
Iteration:  4147
 O         0.257947         0.410054         0.788490
 C        -0.755550         1.025457         0.068688
 C        -0.680061         1.659942        -1.286696
 C        -2.019796         2.333487        -0.763991
 C        -2.981735         2.673238        -1.963122
 O        -3.317167         1.182367        -2.043760
 C        -2.907775         1.138000        -0.669919
 C        -1.936941         0.050555        -0.068817
 C        -1.353892         2.488010         0.602546
 H         1.031954         1.006608         0.654198
 H         0.210194         2.293555        -1.359346
 H        -0.694847         1.057073        -2.223534
 H        -3.858854         3.419765        -1.775436
 H        -2.620007         2.965018        -2.945772
 H        -3.819394         1.426440         0.013075
 H        -2.224795        -0.501868         0.845124
 H        -1.684586        -0.739142        -0.890066
 H        -0.422997         3.050317         0.530787
 H        -1.957863         2.705055         1.437514
