19
Iteration:  4477charge 0 multiplicity 1
 O         0.432713         0.484234         0.808469
 C        -0.770008         0.993095         0.180610
 C        -0.605861         1.645428        -1.258609
 C        -2.003572         2.338809        -0.845737
 C        -2.900962         2.681967        -1.971895
 O        -3.422506         1.309176        -2.097004
 C        -2.930254         1.089383        -0.658559
 C        -1.982863        -0.021685        -0.167935
 C        -1.474935         2.397958         0.648303
 H         0.965526         1.288680         1.036727
 H         0.116754         2.430236        -1.581427
 H        -0.684178         0.954961        -2.122758
 H        -3.773671         3.279004        -1.725236
 H        -2.592396         2.950645        -2.959792
 H        -3.867835         1.157452        -0.023754
 H        -2.448298        -0.509475         0.749355
 H        -1.742712        -0.776337        -0.915631
 H        -0.521020         3.079708         0.794489
 H        -2.205690         2.541966         1.473364
