19
Iteration:  4902
 O         0.279842         0.392387         0.822053
 C        -0.713121         0.997827         0.111639
 C        -0.604651         1.751935        -1.252891
 C        -1.980078         2.293827        -0.859135
 C        -2.963170         2.679323        -1.916063
 O        -3.410319         1.263812        -2.048011
 C        -2.938522         1.086544        -0.742803
 C        -1.887671         0.087567        -0.087856
 C        -1.466450         2.417762         0.550436
 H         1.129927         0.819669         0.946112
 H         0.143184         2.588364        -1.267233
 H        -0.316074         1.188229        -2.135153
 H        -3.865302         3.188183        -1.725442
 H        -2.499789         2.893004        -2.895835
 H        -3.689036         1.113168         0.073471
 H        -2.370185        -0.379329         0.949558
 H        -1.611622        -0.702375        -0.824186
 H        -0.731859         3.291675         0.650634
 H        -2.077509         2.312209         1.423996
