19
Iteration:  4330charge 0 multiplicity 1
 O         0.369331         0.555714         0.840376
 C        -0.740848         1.017878         0.207412
 C        -0.728704         1.550778        -1.311204
 C        -2.024445         2.180936        -0.811961
 C        -2.882110         2.800154        -1.893605
 O        -3.434525         1.377095        -2.139703
 C        -2.950100         0.982298        -0.713445
 C        -1.915884        -0.018017        -0.077666
 C        -1.401724         2.384106         0.558342
 H         1.049914         1.160507         0.637654
 H         0.056581         2.396779        -1.479183
 H        -0.806816         0.859822        -2.212452
 H        -3.573901         3.583879        -1.711229
 H        -2.259174         3.190352        -2.747024
 H        -3.991241         1.032996        -0.215702
 H        -2.312531        -0.336435         0.847904
 H        -1.471228        -0.857929        -0.564510
 H        -0.592116         3.179671         0.387579
 H        -1.949772         2.677296         1.575893
