19
Iteration:  3483
 O         0.362456         0.450081         0.678059
 C        -0.766470         1.025856         0.107819
 C        -0.626889         1.646876        -1.320870
 C        -1.979219         2.351032        -0.854012
 C        -3.006909         2.589496        -2.033002
 O        -3.358827         1.226071        -2.027945
 C        -2.869533         1.251169        -0.638370
 C        -2.015794         0.083009         0.031654
 C        -1.347484         2.421711         0.604721
 H         0.133259         0.195461         1.566852
 H         0.405169         2.087842        -1.412133
 H        -0.822523         0.954299        -2.141969
 H        -3.962049         3.200621        -1.715233
 H        -2.419851         2.926745        -2.929102
 H        -3.706390         1.477261        -0.063612
 H        -2.492906        -0.373738         0.969344
 H        -1.783434        -0.685135        -0.626962
 H        -0.710826         3.207732         0.848966
 H        -1.958714         2.357194         1.539516
