19
Iteration:  2229
 O         0.411648         0.545111         0.700601
 C        -0.764537         1.042259         0.113379
 C        -0.615976         1.436335        -1.323876
 C        -1.992674         2.239566        -0.891596
 C        -2.925851         2.728511        -1.995978
 O        -3.543228         1.346037        -1.998386
 C        -2.927408         1.148911        -0.647111
 C        -1.956851         0.077317         0.035168
 C        -1.342425         2.379204         0.559152
 H         0.388976         0.412640         1.707874
 H         0.160966         2.130079        -1.623269
 H        -0.646813         0.734756        -2.119679
 H        -3.561480         3.637873        -1.654838
 H        -2.360693         3.003895        -2.890398
 H        -3.843286         1.399832         0.021870
 H        -2.218264        -0.294869         1.008571
 H        -1.727668        -0.792925        -0.588001
 H        -0.420597         3.166869         0.457303
 H        -1.974855         2.315386         1.470741
