19
Iteration:  2591charge 0 multiplicity 1
 O         0.472815         0.497716         0.677227
 C        -0.719585         0.975473         0.150562
 C        -0.676597         1.568088        -1.245684
 C        -1.963906         2.328760        -0.920375
 C        -2.936726         2.686560        -2.061742
 O        -3.459451         1.267635        -1.965717
 C        -2.904803         1.197442        -0.575738
 C        -2.093145        -0.026688        -0.020814
 C        -1.336462         2.530633         0.530251
 H         0.406606        -0.167556         1.425879
 H         0.165479         2.188092        -1.513443
 H        -0.924414         0.785712        -1.979796
 H        -3.710637         3.412436        -1.819856
 H        -2.500063         2.941392        -2.997053
 H        -3.841865         1.393898         0.081130
 H        -2.485324        -0.425119         1.020633
 H        -1.913917        -0.742257        -0.830389
 H        -0.486208         3.154960         0.705080
 H        -1.956932         2.688273         1.463204
