19
Iteration:  1723
 O         0.389227         0.610070         0.790325
 C        -0.797104         0.958202         0.159419
 C        -0.640057         1.505404        -1.309725
 C        -1.939815         2.259869        -0.901655
 C        -2.915362         2.719878        -2.006152
 O        -3.523675         1.365438        -1.931932
 C        -2.896201         1.154105        -0.672392
 C        -1.962956        -0.017797        -0.095503
 C        -1.372764         2.444456         0.517476
 H         0.491018        -0.332803         1.076983
 H         0.233363         2.190004        -1.579864
 H        -0.676799         0.651526        -2.109447
 H        -3.617268         3.553603        -1.777690
 H        -2.361298         2.903640        -2.953157
 H        -3.708758         1.306452         0.189590
 H        -2.504351        -0.558383         0.842554
 H        -1.575356        -0.825584        -0.749723
 H        -0.516657         3.114612         0.756370
 H        -1.939512         2.704861         1.494300
