19
Iteration:  2797
 O         0.531971         0.523821         0.715036
 C        -0.759203         0.976472         0.122381
 C        -0.731753         1.532801        -1.300859
 C        -2.003843         2.322699        -0.888749
 C        -2.924307         2.676223        -2.044410
 O        -3.461910         1.341120        -2.051441
 C        -2.994572         1.161525        -0.609474
 C        -1.990560         0.073010         0.030636
 C        -1.292988         2.403002         0.608874
 H         0.256320        -0.161013         1.296483
 H         0.132646         2.232862        -1.529625
 H        -0.878984         0.609000        -1.951331
 H        -3.767974         3.403489        -1.889411
 H        -2.323932         2.901379        -2.967269
 H        -3.947765         1.408253         0.001254
 H        -2.262923        -0.183357         0.996865
 H        -1.821199        -0.786838        -0.550193
 H        -0.570797         3.188239         0.848686
 H        -2.176139         2.401787         1.322408
