19
Iteration:  4281charge 0 multiplicity 1
 O         0.257267         0.336524         0.841904
 C        -0.726392         1.042823         0.087994
 C        -0.577888         1.700453        -1.294171
 C        -1.915572         2.345396        -0.898903
 C        -3.041078         2.631138        -1.907039
 O        -3.375385         1.207610        -2.015596
 C        -2.917124         1.118644        -0.697259
 C        -1.933466         0.148574        -0.088323
 C        -1.382336         2.416901         0.511512
 H         0.997237         1.021333         1.000721
 H         0.107345         2.551172        -1.148755
 H        -0.459571         0.995023        -2.124290
 H        -3.977307         3.182433        -1.474170
 H        -2.917371         3.194630        -2.857837
 H        -3.800132         1.543865        -0.129448
 H        -2.318300        -0.296779         0.911755
 H        -1.730622        -0.692297        -0.861708
 H        -0.680991         3.179639         0.786978
 H        -2.017392         2.350398         1.329738
