19
Iteration:  2081
 O         0.515041         0.543783         0.675335
 C        -0.738203         0.985140         0.080464
 C        -0.692811         1.521970        -1.313178
 C        -1.961454         2.271367        -0.858841
 C        -2.818838         2.635182        -2.084425
 O        -3.523706         1.352611        -1.975259
 C        -2.990907         1.209788        -0.555350
 C        -2.056626         0.050892         0.033747
 C        -1.346886         2.358965         0.597552
 H         0.417751         0.667490         1.620363
 H        -0.065390         2.343654        -1.639984
 H        -0.880567         0.867032        -2.196048
 H        -3.540289         3.476112        -2.208161
 H        -2.288541         2.672288        -3.085388
 H        -3.876806         1.449861         0.145093
 H        -2.367934        -0.342316         1.057201
 H        -1.829537        -0.700152        -0.684249
 H        -0.666027         3.157078         0.704159
 H        -2.104115         2.263208         1.505439
