19
Iteration:  1570
 O         0.261669         0.357849         0.722064
 C        -0.789902         1.075768         0.144398
 C        -0.545485         1.674967        -1.247244
 C        -1.954736         2.338684        -0.854072
 C        -2.965997         2.626323        -2.045203
 O        -3.442974         1.254857        -1.986461
 C        -2.922747         1.126691        -0.612043
 C        -1.989120         0.094846        -0.109586
 C        -1.319752         2.463355         0.582786
 H         0.855016         0.912883         1.158643
 H         0.248068         2.443920        -1.411815
 H        -0.602569         0.804029        -2.013658
 H        -3.722336         3.325056        -1.638837
 H        -2.550222         2.810322        -3.029996
 H        -3.598294         1.288033         0.125090
 H        -2.290713        -0.395600         0.721580
 H        -1.710784        -0.639500        -0.796852
 H        -0.416629         3.086228         0.600054
 H        -2.078549         2.344817         1.428034
