19
Iteration:   310charge 0 multiplicity 1
 O         0.493657         0.595944         0.630353
 C        -0.689922         0.991093         0.138420
 C        -0.664444         1.723258        -1.197193
 C        -1.990987         2.272850        -0.759863
 C        -2.941739         2.749481        -1.897967
 O        -3.296804         1.292102        -2.106646
 C        -2.974936         1.079498        -0.747691
 C        -2.033104        -0.005171        -0.158904
 C        -1.518915         2.215536         0.695400
 H         0.338355         0.393893         1.621043
 H         0.119404         2.577740        -1.057314
 H        -0.742392         1.305657        -2.256392
 H        -3.801402         3.248831        -1.432460
 H        -2.523016         3.144126        -2.931376
 H        -3.916758         1.244947        -0.144904
 H        -2.513147        -0.254317         0.809593
 H        -1.793473        -0.805581        -0.844439
 H        -0.879209         3.133945         0.820925
 H        -2.269695         2.078060         1.380978
