19
Iteration:  3400
 O         0.397185         0.644287         0.890311
 C        -0.729820         0.901056         0.067259
 C        -0.637479         1.563625        -1.331751
 C        -1.940881         2.200300        -0.864750
 C        -2.911288         2.754527        -1.933202
 O        -3.521277         1.350613        -2.068260
 C        -2.897473         1.134780        -0.624389
 C        -2.015416        -0.045865        -0.091906
 C        -1.386133         2.331368         0.558388
 H         0.836363         1.530238         1.096637
 H         0.147950         2.292049        -1.374731
 H        -0.688791         0.882856        -2.211554
 H        -3.614266         3.509812        -1.759838
 H        -2.237883         3.039092        -2.742141
 H        -3.812630         1.336678        -0.009968
 H        -2.382573        -0.504603         0.798126
 H        -1.955369        -0.804610        -0.990289
 H        -0.534179         3.030824         0.640537
 H        -2.167388         2.284216         1.269222
