19
Iteration:  4753
 O         0.196813         0.284357         0.918600
 C        -0.666182         1.068550         0.151444
 C        -0.683829         1.757217        -1.347125
 C        -2.002984         2.306240        -0.871904
 C        -3.083368         2.604364        -1.937848
 O        -3.353445         1.273366        -2.085835
 C        -2.855920         1.083232        -0.736500
 C        -1.834645         0.061763        -0.121730
 C        -1.393841         2.524560         0.575496
 H         0.973784         0.795906         0.862528
 H        -0.023128         2.687735        -1.338204
 H        -0.586291         1.137231        -2.267105
 H        -3.752946         3.365909        -1.457807
 H        -2.614626         3.109153        -2.777830
 H        -3.627862         1.153805        -0.024255
 H        -2.097371        -0.370447         0.818922
 H        -1.530851        -0.740938        -0.782375
 H        -0.549274         3.262153         0.802078
 H        -2.056519         2.389390         1.518088
