19
Iteration:  1283
 O         0.413714         0.440434         0.682865
 C        -0.798361         1.000329         0.140532
 C        -0.684313         1.702952        -1.301476
 C        -2.021653         2.310912        -0.801219
 C        -2.915207         2.703982        -2.018890
 O        -3.388524         1.283399        -2.059760
 C        -2.927662         1.085215        -0.662833
 C        -1.942756         0.029902        -0.031211
 C        -1.393067         2.416969         0.666114
 H         0.268977         0.462992         1.705218
 H         0.151942         2.391045        -1.598422
 H        -0.738509         0.990166        -2.145196
 H        -3.727337         3.411504        -1.786220
 H        -2.385160         3.137375        -2.895252
 H        -3.887002         1.232541        -0.157587
 H        -2.265575        -0.631106         0.836574
 H        -1.496357        -0.664244        -0.704449
 H        -0.625562         3.197345         0.563000
 H        -2.113235         2.480478         1.537593
