19
Iteration:  4719
 O         0.387921         0.565479         0.800801
 C        -0.834364         0.944604         0.111642
 C        -0.596684         1.551398        -1.240153
 C        -2.020968         2.292252        -0.854248
 C        -3.001540         2.693296        -1.913778
 O        -3.354697         1.350079        -2.103462
 C        -2.915273         1.078838        -0.713138
 C        -1.948925        -0.039118        -0.115593
 C        -1.413586         2.406311         0.593809
 H         0.876468         1.314067         1.096585
 H         0.219467         2.386709        -1.185656
 H        -0.406790         0.962203        -2.164773
 H        -3.828555         3.360144        -1.458497
 H        -2.537076         3.089300        -2.852060
 H        -3.766976         1.382182        -0.098923
 H        -2.243920        -0.531744         0.839897
 H        -1.819042        -0.779588        -0.847740
 H        -0.632664         3.218600         0.901946
 H        -2.230453         2.408003         1.405575
