19
Iteration:  3896
 O         0.436082         0.627976         0.828670
 C        -0.739055         1.050726         0.093324
 C        -0.559960         1.542696        -1.309429
 C        -1.897195         2.266488        -0.917215
 C        -2.924197         2.674605        -2.013227
 O        -3.526006         1.234794        -1.966282
 C        -2.941462         1.133872        -0.625006
 C        -2.109404        -0.010580        -0.082278
 C        -1.333552         2.466349         0.500552
 H         0.207478        -0.054396         1.473897
 H         0.294277         2.262660        -1.534815
 H        -0.558785         0.739100        -2.068521
 H        -3.608417         3.424882        -1.433810
 H        -2.481158         3.024996        -2.914774
 H        -3.794462         1.507648         0.096379
 H        -2.564417        -0.378854         0.824593
 H        -2.070522        -0.888002        -0.793620
 H        -0.503572         3.148829         0.638205
 H        -2.034348         2.518510         1.372168
