19
Iteration:   646charge 0 multiplicity 1
 O         0.429568         0.521191         0.788431
 C        -0.797357         0.986317         0.166735
 C        -0.709150         1.665112        -1.267889
 C        -1.947418         2.356479        -0.855179
 C        -2.971701         2.664441        -1.929342
 O        -3.355946         1.208640        -2.081497
 C        -2.973689         1.137188        -0.698074
 C        -1.988041         0.112943        -0.163868
 C        -1.369356         2.361246         0.686870
 H         0.988783        -0.122936         0.205696
 H         0.087905         2.429055        -1.349802
 H        -0.559953         1.111492        -2.188515
 H        -3.935862         3.160090        -1.517684
 H        -2.813810         3.159513        -2.921045
 H        -3.838527         1.224403         0.094014
 H        -2.437333        -0.450612         0.753860
 H        -1.669119        -0.618775        -0.969407
 H        -0.534238         3.099972         1.025508
 H        -1.996319         2.521909         1.508834
