19
Iteration:  4857
 O         0.308801         0.400683         0.870032
 C        -0.738225         1.046943         0.154916
 C        -0.667492         1.628421        -1.271755
 C        -2.062715         2.320527        -0.791445
 C        -3.059220         2.722293        -1.932812
 O        -3.276381         1.244358        -2.134522
 C        -2.893284         1.054216        -0.672855
 C        -1.948453         0.050464        -0.160747
 C        -1.365337         2.446602         0.557794
 H         0.960244         1.147627         0.829164
 H         0.216704         2.301740        -1.361902
 H        -0.745060         1.165164        -2.247898
 H        -3.873391         3.230041        -1.483936
 H        -2.715771         3.187968        -2.887211
 H        -3.695701         1.342107         0.087455
 H        -2.355520        -0.487353         0.835633
 H        -1.536035        -0.687528        -0.924809
 H        -0.619472         3.294802         0.546281
 H        -1.952433         2.535376         1.464266
