19
Iteration:  1082charge 0 multiplicity 1
 O         0.325111         0.451562         0.766849
 C        -0.731361         1.030887         0.115454
 C        -0.656921         1.598637        -1.304446
 C        -1.945251         2.366720        -0.895810
 C        -3.065339         2.652845        -1.917387
 O        -3.359994         1.299696        -2.033199
 C        -2.872624         1.114459        -0.610059
 C        -1.980577         0.039630        -0.093038
 C        -1.297739         2.429270         0.517706
 H         0.039106         0.460560         1.667732
 H         0.191799         2.278231        -1.458336
 H        -0.812062         0.873104        -2.129912
 H        -3.799907         3.305324        -1.428800
 H        -2.771117         3.028060        -2.876239
 H        -3.717305         1.345864        -0.105581
 H        -2.429153        -0.450996         0.906695
 H        -1.594155        -0.738411        -0.857561
 H        -0.541800         3.228275         0.658470
 H        -2.016970         2.455026         1.352258
