19
Iteration:  4185
 O         0.346919         0.443934         0.899351
 C        -0.772102         1.020549         0.146577
 C        -0.628463         1.573837        -1.349760
 C        -1.966902         2.223755        -0.934905
 C        -3.043859         2.750127        -1.812522
 O        -3.374489         1.298470        -2.186052
 C        -2.895737         1.078603        -0.761962
 C        -1.925840         0.090899         0.055614
 C        -1.399940         2.433287         0.539925
 H         1.248449         0.508467         0.439933
 H         0.067876         2.435702        -1.472874
 H        -0.849655         0.850000        -2.113118
 H        -3.837071         3.139879        -1.272517
 H        -2.841965         3.458036        -2.681866
 H        -3.728712         1.349547        -0.118584
 H        -2.278983        -0.356672         1.008560
 H        -1.614959        -0.646861        -0.661788
 H        -0.703831         3.284047         0.598961
 H        -2.039368         2.634952         1.484406
