19
Iteration:   818
 O         0.404501         0.578799         0.796779
 C        -0.736233         1.007846         0.153044
 C        -0.687831         1.597651        -1.355158
 C        -1.962237         2.298067        -0.827398
 C        -3.011968         2.717305        -1.919677
 O        -3.354992         1.261702        -2.104823
 C        -2.937565         1.105503        -0.592247
 C        -2.033205         0.076131        -0.085879
 C        -1.336180         2.387240         0.576668
 H         0.671067        -0.256073         0.500481
 H         0.138945         2.389571        -1.331383
 H        -0.868694         0.860947        -2.178506
 H        -3.959941         3.393295        -1.713079
 H        -2.444974         3.066468        -2.810227
 H        -3.741887         1.425476         0.068055
 H        -2.317760        -0.499927         0.797403
 H        -1.851656        -0.732412        -0.743564
 H        -0.429674         2.966613         0.804783
 H        -2.134736         2.263371         1.364863
