19
Iteration:  1701
 O         0.402860         0.492468         0.832938
 C        -0.722967         0.964129         0.129252
 C        -0.621405         1.601157        -1.256895
 C        -1.885755         2.318123        -0.934524
 C        -2.929044         2.608432        -2.093472
 O        -3.549377         1.316626        -1.877010
 C        -2.933099         1.133565        -0.593775
 C        -2.000360         0.071327        -0.152822
 C        -1.366438         2.500374         0.521291
 H         0.150594        -0.435729         0.928144
 H         0.216270         2.371655        -1.307200
 H        -0.514897         1.057547        -2.279281
 H        -3.672664         3.385806        -1.836456
 H        -2.395843         2.863493        -3.021380
 H        -3.813674         1.368273         0.204532
 H        -2.399298        -0.623672         0.711447
 H        -1.808814        -0.534872        -1.051918
 H        -0.549735         3.259519         0.632045
 H        -1.972786         2.576090         1.524659
