19
Iteration:  4425charge 0 multiplicity 1
 O         0.296916         0.444200         0.905992
 C        -0.720485         1.050190         0.156460
 C        -0.712218         1.577516        -1.316718
 C        -2.016507         2.286692        -0.835004
 C        -2.996068         2.748988        -1.878374
 O        -3.412451         1.353013        -2.144098
 C        -2.852039         1.027837        -0.783128
 C        -1.875384        -0.016904        -0.107338
 C        -1.353886         2.450638         0.588912
 H         1.084817         1.006898         0.943935
 H         0.140969         2.293734        -1.512398
 H        -0.829412         1.019556        -2.214031
 H        -3.945370         3.306388        -1.645380
 H        -2.704147         3.135458        -2.921252
 H        -3.673758         1.121684         0.005024
 H        -2.407627        -0.377385         0.898405
 H        -1.404552        -0.876034        -0.624380
 H        -0.740893         3.316561         0.738492
 H        -1.968103         2.389582         1.464366
