19
Iteration:  4926charge 0 multiplicity 1
 O         0.412360         0.508240         0.845242
 C        -0.765958         0.991098         0.158253
 C        -0.651213         1.659098        -1.249773
 C        -1.992109         2.227091        -0.826160
 C        -2.909925         2.737658        -2.069938
 O        -3.502896         1.379524        -2.114418
 C        -2.945388         1.064087        -0.702972
 C        -1.900066        -0.051023        -0.097482
 C        -1.429922         2.393415         0.674665
 H         1.175041         1.178044         0.851223
 H         0.289545         2.215538        -1.356638
 H        -0.783582         1.044074        -2.152501
 H        -3.769034         3.353009        -1.784190
 H        -2.393611         3.027008        -2.983859
 H        -3.792656         1.064550         0.038820
 H        -2.311124        -0.579926         0.876995
 H        -1.533135        -0.746656        -0.850675
 H        -0.867891         3.327158         0.670643
 H        -2.048230         2.250001         1.579916
