19
Iteration:   383
 O         0.365744         0.421448         0.842220
 C        -0.697440         1.013584         0.110571
 C        -0.565757         1.803739        -1.218418
 C        -1.964327         2.301819        -0.893960
 C        -3.124538         2.711167        -1.865070
 O        -3.417272         1.328272        -2.104400
 C        -2.866376         1.061170        -0.770208
 C        -1.850143         0.014009        -0.177411
 C        -1.445924         2.367520         0.593399
 H        -0.031281        -0.339593         1.274039
 H         0.198518         2.536248        -1.247369
 H        -0.507755         1.055282        -2.000080
 H        -3.845645         3.136163        -1.166880
 H        -3.133848         3.316094        -2.785679
 H        -3.654236         1.285623        -0.022873
 H        -2.189919        -0.408567         0.796966
 H        -1.417267        -0.649570        -0.988416
 H        -0.773519         3.305815         0.816471
 H        -2.253108         2.088637         1.385757
