19
Iteration:  2122charge 0 multiplicity 1
 O         0.345427         0.509319         0.637431
 C        -0.748144         1.115373         0.168384
 C        -0.639930         1.497944        -1.313023
 C        -1.960611         2.208111        -0.868455
 C        -3.016195         2.665753        -1.908170
 O        -3.373470         1.290694        -2.114011
 C        -2.966990         1.103651        -0.584832
 C        -2.046829         0.105060         0.077880
 C        -1.226432         2.487461         0.497580
 H         0.064768        -0.103997         1.395040
 H         0.328942         2.085652        -1.400914
 H        -0.726747         0.608271        -2.017012
 H        -3.722110         3.176085        -1.293342
 H        -2.681109         3.258355        -2.809835
 H        -3.808172         1.596543        -0.033296
 H        -2.377199        -0.330346         1.059828
 H        -1.754867        -0.653828        -0.645474
 H        -0.471805         3.216112         0.407606
 H        -1.752663         2.743304         1.341414
