19
Iteration:   384charge 0 multiplicity 1
 O         0.367897         0.417618         0.845629
 C        -0.708079         1.029851         0.113950
 C        -0.567637         1.798749        -1.218909
 C        -1.957587         2.314194        -0.899911
 C        -3.126547         2.700973        -1.853902
 O        -3.415005         1.320008        -2.094508
 C        -2.862746         1.066517        -0.781814
 C        -1.850141         0.010490        -0.181035
 C        -1.451601         2.361956         0.590254
 H        -0.000389        -0.334450         1.251846
 H         0.244179         2.535320        -1.242016
 H        -0.551840         1.058561        -2.036917
 H        -3.853958         3.147517        -1.189505
 H        -3.119333         3.367806        -2.796922
 H        -3.672725         1.302905        -0.055685
 H        -2.208582        -0.407075         0.811074
 H        -1.430101        -0.646853        -0.996475
 H        -0.733605         3.291876         0.859625
 H        -2.234720         2.086646         1.368150
