19
Iteration:  2954
 O         0.278298         0.433008         0.658444
 C        -0.718899         1.077192         0.059658
 C        -0.630776         1.717041        -1.252584
 C        -1.998640         2.307531        -0.817235
 C        -2.928809         2.583113        -2.053720
 O        -3.434811         1.241934        -1.965794
 C        -2.926738         1.125220        -0.650806
 C        -1.978737         0.096124        -0.023459
 C        -1.295152         2.460274         0.631924
 H        -0.009700        -0.282632         1.199790
 H         0.256789         2.413867        -1.253448
 H        -0.654946         1.209256        -2.263251
 H        -3.641468         3.419311        -1.892620
 H        -2.309199         2.637829        -2.919808
 H        -3.692539         1.540816         0.085496
 H        -2.283220        -0.244069         0.905270
 H        -1.711738        -0.791280        -0.575818
 H        -0.338511         2.977837         0.717233
 H        -1.995037         2.518187         1.407241
