19
Iteration:  1109
 O         0.468064         0.553305         0.771260
 C        -0.733287         0.999775         0.211664
 C        -0.709809         1.539276        -1.354983
 C        -2.012013         2.217354        -0.874014
 C        -2.970658         2.810197        -1.851176
 O        -3.361934         1.333266        -2.137724
 C        -3.012882         1.002262        -0.692051
 C        -2.037661        -0.012314        -0.036212
 C        -1.270634         2.437791         0.539519
 H         0.343487         0.527706         1.691102
 H         0.039286         2.335265        -1.452873
 H        -0.780125         0.799795        -2.142378
 H        -3.745844         3.413789        -1.320571
 H        -2.526365         3.180150        -2.805221
 H        -4.154543         1.197953        -0.279546
 H        -2.571218        -0.190813         0.878139
 H        -1.569176        -0.762243        -0.622145
 H        -0.518306         3.227012         0.397531
 H        -1.858040         2.745858         1.420850
