19
Iteration:   509charge 0 multiplicity 1
 O         0.298122         0.382936         0.837214
 C        -0.769831         1.006467         0.151000
 C        -0.680089         1.729316        -1.268020
 C        -2.000183         2.309907        -0.786187
 C        -3.115802         2.741112        -1.901536
 O        -3.341875         1.298421        -2.105379
 C        -2.865467         1.023000        -0.742009
 C        -1.875415         0.026289        -0.170379
 C        -1.336799         2.421103         0.657106
 H         1.065434         0.834177         0.554241
 H         0.065000         2.541291        -1.403693
 H        -0.641653         1.135415        -2.231136
 H        -4.045844         3.234473        -1.701106
 H        -2.719493         3.194956        -2.843911
 H        -3.747155         1.216404        -0.089389
 H        -2.186788        -0.654555         0.606844
 H        -1.515234        -0.563187        -1.019471
 H        -0.500143         3.077406         0.801969
 H        -1.967471         2.583338         1.563224
