19
Iteration:  3940charge 0 multiplicity 1
 O         0.310443         0.367269         0.879642
 C        -0.715765         1.058941         0.102355
 C        -0.646204         1.583766        -1.419664
 C        -1.931117         2.304757        -0.887516
 C        -3.041129         2.719548        -1.896678
 O        -3.423717         1.204042        -2.072075
 C        -2.892457         1.077860        -0.648009
 C        -1.966344         0.094899        -0.008530
 C        -1.277293         2.584220         0.472096
 H         0.333827         0.696024         1.788973
 H         0.200854         2.281372        -1.667846
 H        -0.768271         0.848566        -2.268239
 H        -3.957045         3.172017        -1.557447
 H        -2.830335         3.135954        -2.870111
 H        -3.639977         1.401337         0.094672
 H        -2.364485        -0.328512         0.928326
 H        -1.627292        -0.877665        -0.439726
 H        -0.546868         3.401133         0.376187
 H        -1.954993         2.628731         1.342768
