19
Iteration:  1186
 O         0.360373         0.331394         0.766937
 C        -0.709575         1.040440         0.120560
 C        -0.607211         1.722865        -1.232063
 C        -1.985476         2.356256        -0.854590
 C        -2.928195         2.676903        -1.991514
 O        -3.420028         1.203048        -1.962901
 C        -3.039861         1.055571        -0.631804
 C        -1.919317         0.119271        -0.161526
 C        -1.351649         2.554578         0.517290
 H        -0.100312        -0.256265         1.487888
 H         0.141752         2.495512        -1.457227
 H        -0.449704         1.116641        -2.106189
 H        -3.821954         3.296573        -1.806329
 H        -2.642662         3.075364        -2.988369
 H        -3.882843         1.296922         0.211280
 H        -2.264205        -0.554148         0.853195
 H        -1.570132        -0.506452        -0.990049
 H        -0.497963         3.172096         0.592516
 H        -2.071913         2.593769         1.363702
