19
Iteration:  2515charge 0 multiplicity 1
 O         0.280401         0.403310         0.830283
 C        -0.735859         1.097811         0.075749
 C        -0.613439         1.507925        -1.373542
 C        -1.962067         2.199456        -0.933931
 C        -3.021546         2.772762        -1.863288
 O        -3.433854         1.257286        -1.966016
 C        -2.907167         1.119411        -0.581294
 C        -2.015204         0.131647        -0.110712
 C        -1.211906         2.478554         0.421548
 H         0.391290         0.732911         1.691611
 H         0.152626         2.204837        -1.479007
 H        -0.491009         0.723628        -2.097712
 H        -3.754375         3.210712        -1.173348
 H        -2.901495         3.106884        -2.853743
 H        -3.690930         1.455509         0.082241
 H        -2.250548        -0.464132         0.867842
 H        -1.696817        -0.627094        -0.782247
 H        -0.358650         3.145835         0.265551
 H        -1.954104         2.839959         1.253944
