19
Iteration:  4662charge 0 multiplicity 1
 O         0.313531         0.364443         0.849063
 C        -0.791983         1.099307         0.155858
 C        -0.667474         1.753569        -1.255417
 C        -2.042222         2.277592        -0.858948
 C        -2.971478         2.738005        -1.956903
 O        -3.375530         1.264428        -2.089965
 C        -2.867838         1.024579        -0.709229
 C        -1.876040         0.003315        -0.082037
 C        -1.400300         2.417074         0.578746
 H         1.177105         0.867491         0.934632
 H         0.155625         2.563576        -1.419170
 H        -0.765296         1.081121        -2.145816
 H        -3.855955         3.429808        -1.638579
 H        -2.691588         3.076442        -2.994835
 H        -3.776436         1.237992        -0.129723
 H        -2.287356        -0.359440         0.884064
 H        -1.542247        -0.705152        -0.794872
 H        -0.573557         3.213572         0.467183
 H        -2.056819         2.357203         1.451106
