19
Iteration:  1620charge 0 multiplicity 1
 O         0.415174         0.624186         0.671952
 C        -0.779143         1.004073         0.169328
 C        -0.711359         1.442758        -1.305393
 C        -1.933900         2.232025        -0.846950
 C        -2.943612         2.715027        -1.915723
 O        -3.362015         1.370491        -2.102997
 C        -2.998455         1.121890        -0.713097
 C        -2.034461         0.050229        -0.004305
 C        -1.285850         2.377391         0.593921
 H         0.325393         0.324971         1.655984
 H         0.025365         2.224970        -1.325369
 H        -0.776918         0.708745        -2.053601
 H        -3.788369         3.326586        -1.564456
 H        -2.423422         3.125838        -2.813278
 H        -3.905339         1.314874         0.043962
 H        -2.454149        -0.317537         1.071845
 H        -1.832455        -0.980059        -0.493243
 H        -0.412655         3.102646         0.435913
 H        -1.974404         2.534513         1.414793
