19
Iteration:   906charge 0 multiplicity 1
 O         0.377351         0.516601         0.798572
 C        -0.712418         0.991259         0.098381
 C        -0.604560         1.616349        -1.289227
 C        -1.947772         2.281850        -0.907984
 C        -2.931380         2.728493        -2.046211
 O        -3.501365         1.296337        -1.994638
 C        -2.973350         1.144943        -0.597595
 C        -2.040190        -0.080499        -0.118050
 C        -1.316972         2.402266         0.646053
 H         0.951690         1.247668         0.775517
 H         0.189495         2.393803        -1.195786
 H        -0.785909         0.996331        -2.143426
 H        -3.861693         3.301798        -1.886084
 H        -2.471847         2.946099        -2.991159
 H        -3.795089         1.633562         0.153659
 H        -2.423914        -0.486453         0.790329
 H        -1.609246        -0.787669        -0.785842
 H        -0.536875         3.074665         0.720043
 H        -1.969459         2.247181         1.498206
