19
Iteration:  4233
 O         0.409920         0.477444         0.822320
 C        -0.793460         1.041382         0.166276
 C        -0.669103         1.640900        -1.240850
 C        -2.032395         2.285377        -0.814791
 C        -2.812046         2.634818        -2.033292
 O        -3.525019         1.282282        -2.055165
 C        -2.951277         1.128866        -0.548670
 C        -1.902136         0.028220        -0.199913
 C        -1.392026         2.382011         0.551040
 H         1.162660         1.007752         0.657128
 H         0.046755         2.421054        -1.178928
 H        -0.818734         0.893661        -2.011154
 H        -3.459786         3.578834        -1.915599
 H        -2.348507         2.820740        -2.986313
 H        -3.763175         1.363918         0.125240
 H        -2.393242        -0.522815         0.548990
 H        -1.738172        -0.600904        -1.064380
 H        -0.676079         3.176343         0.853113
 H        -2.158632         2.594914         1.365905
