19
Iteration:  1650
 O         0.440972         0.471921         0.826166
 C        -0.759384         0.976821         0.177644
 C        -0.689237         1.556792        -1.367471
 C        -1.896069         2.321444        -0.875277
 C        -3.046692         2.709653        -1.925265
 O        -3.353421         1.288280        -2.031389
 C        -2.913969         1.150030        -0.649043
 C        -2.038617         0.014425        -0.064323
 C        -1.347260         2.492976         0.466369
 H         0.070600        -0.284252         1.207153
 H         0.105797         2.284442        -1.538415
 H        -0.834968         0.801821        -2.119977
 H        -3.877180         3.361794        -1.557759
 H        -2.686588         3.190310        -2.854787
 H        -3.642795         1.461898         0.006316
 H        -2.404788        -0.330673         0.895792
 H        -1.898660        -0.912522        -0.648324
 H        -0.572758         3.341961         0.705309
 H        -1.968529         2.851136         1.256397
