19
Iteration:  4879charge 0 multiplicity 1
 O         0.219830         0.358947         0.806160
 C        -0.766577         1.058490         0.159886
 C        -0.609015         1.697278        -1.273374
 C        -1.948489         2.400889        -0.905860
 C        -3.095533         2.657526        -1.917560
 O        -3.281399         1.193738        -2.098067
 C        -2.851262         1.115619        -0.634484
 C        -1.925787         0.026523        -0.169301
 C        -1.405546         2.499619         0.629373
 H         1.049580         0.859221         0.872439
 H         0.033363         2.538634        -1.534187
 H        -0.413253         0.956724        -2.037367
 H        -3.950489         3.096617        -1.468037
 H        -2.886472         3.031733        -2.940972
 H        -3.597988         1.329619         0.172058
 H        -2.317433        -0.499605         0.841358
 H        -1.681947        -0.685974        -1.016755
 H        -0.463251         3.035993         0.965989
 H        -2.175682         2.610903         1.371172
