19
Iteration:  2362charge 0 multiplicity 1
 O         0.463345         0.420232         0.793603
 C        -0.702692         0.984802         0.100745
 C        -0.648127         1.502163        -1.323197
 C        -1.923383         2.237974        -0.920269
 C        -2.958962         2.681073        -1.935769
 O        -3.487740         1.340971        -1.942879
 C        -2.965451         1.183177        -0.599044
 C        -2.034626        -0.001023        -0.045181
 C        -1.330174         2.571837         0.411751
 H         0.226797         0.547033         1.762598
 H         0.082564         2.240513        -1.514331
 H        -0.698397         0.756165        -2.103932
 H        -3.693648         3.443426        -1.599720
 H        -2.670178         3.143496        -2.880224
 H        -3.813286         1.349621         0.193853
 H        -2.644463        -0.572874         0.658176
 H        -1.685016        -0.604133        -0.816689
 H        -0.522543         3.364697         0.377961
 H        -2.037771         2.822474         1.262929
