19
Iteration:  2855
 O         0.381687         0.358113         0.786733
 C        -0.742335         1.009943         0.131649
 C        -0.656790         1.632392        -1.290278
 C        -1.952071         2.315317        -0.921188
 C        -3.046562         2.688904        -1.983842
 O        -3.437964         1.221944        -1.973443
 C        -2.872755         1.191085        -0.681875
 C        -1.991966         0.118945        -0.070287
 C        -1.259862         2.495722         0.544091
 H         0.165763         0.235400         1.764608
 H         0.194409         2.294332        -1.593024
 H        -0.660057         0.804812        -2.089531
 H        -4.016238         3.229162        -1.665785
 H        -2.777722         3.025959        -2.974760
 H        -3.666176         1.395487         0.117161
 H        -2.367860        -0.465765         0.785454
 H        -1.750456        -0.646414        -0.825851
 H        -0.582364         3.303799         0.579893
 H        -1.978595         2.705920         1.369141
