19
Iteration:  3424
 O         0.381275         0.518015         0.908698
 C        -0.747346         1.011366         0.120110
 C        -0.728346         1.556659        -1.358159
 C        -1.962536         2.226566        -0.866080
 C        -2.938211         2.764482        -1.990721
 O        -3.497390         1.381901        -2.024157
 C        -2.943165         1.055891        -0.737793
 C        -1.863688         0.004015        -0.091705
 C        -1.340304         2.416819         0.564051
 H         0.621498         1.106324         1.607535
 H         0.136199         2.084331        -1.612937
 H        -0.918636         0.685370        -1.968626
 H        -3.654865         3.526759        -1.615630
 H        -2.578415         3.185110        -2.902688
 H        -3.833636         1.042192        -0.076102
 H        -2.396081        -0.375495         0.807105
 H        -1.359868        -0.927596        -0.675626
 H        -0.457476         3.098954         0.485636
 H        -2.033255         2.342689         1.343023
