19
Iteration:  4387charge 0 multiplicity 1
 O         0.189142         0.354483         0.764584
 C        -0.785648         1.029253         0.095308
 C        -0.568617         1.725813        -1.233292
 C        -1.915957         2.412546        -0.821020
 C        -3.051649         2.584979        -2.012406
 O        -3.318145         1.189875        -2.010542
 C        -2.882606         1.133785        -0.608885
 C        -1.954834         0.022736        -0.164596
 C        -1.365231         2.526493         0.605164
 H         1.010615         0.947669         0.864666
 H         0.193305         2.539194        -1.172378
 H        -0.485078         1.227994        -2.267270
 H        -3.833563         3.171081        -1.557486
 H        -2.707674         3.014887        -2.900480
 H        -3.835265         1.264205         0.005701
 H        -2.348596        -0.528663         0.627564
 H        -1.625305        -0.677915        -0.954331
 H        -0.536094         3.338251         0.720022
 H        -2.091014         2.351686         1.468833
