19
Iteration:  2309charge 0 multiplicity 1
 O         0.493605         0.460931         0.698483
 C        -0.738471         0.962836         0.079488
 C        -0.660142         1.609572        -1.344781
 C        -1.976053         2.253296        -0.896111
 C        -2.894733         2.697179        -2.024652
 O        -3.494615         1.283234        -1.941646
 C        -2.935885         1.186615        -0.592953
 C        -2.041088         0.096664         0.051890
 C        -1.380040         2.440292         0.501415
 H         0.344339        -0.125581         1.504646
 H         0.122959         2.396122        -1.533914
 H        -0.809801         0.792898        -2.145068
 H        -3.679111         3.430544        -1.866878
 H        -2.028837         2.952070        -2.741290
 H        -3.771719         1.433171         0.112266
 H        -2.438967        -0.074100         1.090856
 H        -2.036387        -0.823686        -0.467819
 H        -0.613518         3.180416         0.582952
 H        -2.165405         2.568861         1.279219
