19
Iteration:  3491
 O         0.391615         0.494957         0.664802
 C        -0.746111         1.046332         0.157665
 C        -0.662651         1.584606        -1.322668
 C        -1.996423         2.334197        -0.869478
 C        -2.938368         2.639760        -2.068709
 O        -3.346776         1.281172        -2.013071
 C        -2.956801         1.124561        -0.620580
 C        -2.004001         0.098064         0.029362
 C        -1.330911         2.401225         0.645959
 H         0.019596         0.017534         1.433803
 H         0.119436         2.326001        -1.496060
 H        -0.881486         0.916831        -2.114592
 H        -3.788043         3.320346        -1.914722
 H        -2.447341         2.881468        -2.980770
 H        -3.866374         1.458520         0.034185
 H        -2.369087        -0.284974         1.077288
 H        -1.767417        -0.740166        -0.721809
 H        -0.602444         3.241481         0.660171
 H        -2.115571         2.297330         1.393653
