19
Iteration:  1730charge 0 multiplicity 1
 O         0.373033         0.647549         0.788479
 C        -0.761107         0.969951         0.141077
 C        -0.630667         1.454037        -1.330130
 C        -1.908516         2.236982        -0.891501
 C        -2.913694         2.720305        -1.984299
 O        -3.521779         1.389323        -1.958829
 C        -2.940747         1.076538        -0.685282
 C        -1.974425         0.034118        -0.066335
 C        -1.340885         2.445444         0.573612
 H         0.281492        -0.262219         1.028874
 H         0.135892         2.167105        -1.561652
 H        -0.691313         0.738107        -2.114999
 H        -3.659140         3.440976        -1.650706
 H        -2.377493         3.055875        -2.891203
 H        -3.699931         1.245575        -0.021643
 H        -2.470671        -0.340325         0.873304
 H        -1.631368        -0.761453        -0.743782
 H        -0.483963         3.065427         0.509205
 H        -1.998248         2.418416         1.436203
