19
Iteration:  4012charge 0 multiplicity 1
 O         0.354861         0.472097         0.769490
 C        -0.732247         1.066126         0.148411
 C        -0.594615         1.590222        -1.292264
 C        -2.024194         2.201548        -0.877345
 C        -2.906581         2.655042        -2.010973
 O        -3.452685         1.304410        -2.065442
 C        -3.005524         1.105986        -0.601829
 C        -1.939157         0.052212         0.037954
 C        -1.387922         2.507642         0.562410
 H         1.083601         0.402605         0.174705
 H         0.169766         2.392253        -1.420225
 H        -0.539886         0.952973        -2.138389
 H        -3.711475         3.490833        -1.718265
 H        -2.342428         2.915771        -2.981146
 H        -3.975351         1.366771         0.036590
 H        -2.134991        -0.466226         0.998836
 H        -1.674100        -0.843327        -0.606681
 H        -0.708969         3.337825         0.628178
 H        -2.136897         2.474313         1.390625
