19
Iteration:   882
 O         0.363136         0.464518         0.863068
 C        -0.689147         1.022055         0.128485
 C        -0.620931         1.567050        -1.232997
 C        -1.954547         2.235987        -0.951990
 C        -2.980710         2.676775        -1.901674
 O        -3.486830         1.362922        -1.999928
 C        -2.913602         1.099636        -0.652108
 C        -1.925130         0.059454        -0.167052
 C        -1.421309         2.435834         0.517877
 H         1.170958         0.670047         0.362347
 H         0.016568         2.473024        -1.420475
 H        -0.832571         0.832090        -1.981617
 H        -3.709686         3.378291        -1.572816
 H        -2.530965         2.982338        -2.857147
 H        -3.882746         1.361550         0.024969
 H        -2.352874        -0.223780         0.817932
 H        -1.645849        -0.847799        -0.731173
 H        -0.617155         3.106299         0.573170
 H        -2.187018         2.460201         1.314624
