19
Iteration:  4699charge 0 multiplicity 1
 O         0.438618         0.625248         0.806958
 C        -0.753132         0.983446         0.193471
 C        -0.664221         1.613279        -1.274574
 C        -1.995684         2.261209        -0.847396
 C        -2.878757         2.789454        -1.941359
 O        -3.384161         1.285040        -2.074800
 C        -2.935256         1.066529        -0.727549
 C        -2.057088        -0.049108        -0.134864
 C        -1.475638         2.293433         0.582295
 H         0.944301         1.411072         0.995976
 H         0.202552         2.279699        -1.513944
 H        -0.923664         0.989996        -2.145845
 H        -3.571976         3.485204        -1.488996
 H        -2.346665         3.164267        -2.815499
 H        -3.712466         1.232035         0.026688
 H        -2.506784        -0.608883         0.681303
 H        -1.658376        -0.871109        -0.768329
 H        -0.711698         3.090554         0.777024
 H        -2.082942         2.355316         1.555940
