19
Iteration:  4478charge 0 multiplicity 1
 O         0.424046         0.480597         0.806261
 C        -0.769861         0.994311         0.185399
 C        -0.607947         1.643043        -1.257751
 C        -2.010957         2.345008        -0.843749
 C        -2.900500         2.682660        -1.972309
 O        -3.423993         1.308503        -2.100340
 C        -2.927249         1.091497        -0.653364
 C        -1.967976        -0.018928        -0.170573
 C        -1.470402         2.398628         0.647137
 H         0.959566         1.248641         1.037603
 H         0.112551         2.444255        -1.578819
 H        -0.684658         0.966625        -2.104870
 H        -3.793373         3.261913        -1.743053
 H        -2.594549         2.940959        -2.986406
 H        -3.887589         1.184430        -0.026433
 H        -2.432018        -0.522319         0.784376
 H        -1.715670        -0.788109        -0.915673
 H        -0.520473         3.062213         0.776829
 H        -2.197772         2.532420         1.467159
