19
Iteration:   153
 O         0.361981         0.394636         0.785107
 C        -0.701753         1.013879         0.090078
 C        -0.692402         1.820853        -1.273614
 C        -1.990305         2.359135        -0.762105
 C        -3.142652         2.650599        -1.938483
 O        -3.251644         1.244808        -2.139226
 C        -2.868030         1.125074        -0.717947
 C        -1.996558         0.054114        -0.205253
 C        -1.347249         2.308447         0.747847
 H         0.861042         1.171415         1.015882
 H        -0.069165         2.665068        -1.320151
 H        -0.807776         1.231508        -2.158675
 H        -4.117478         3.030431        -1.520378
 H        -2.903101         3.204721        -2.867960
 H        -3.697450         1.267930        -0.003965
 H        -2.318379        -0.349528         0.761444
 H        -1.818503        -0.797254        -0.908389
 H        -0.622049         2.925575         1.108805
 H        -2.010035         2.022551         1.488835
