19
Iteration:  1660charge 0 multiplicity 1
 O         0.355590         0.408102         0.846127
 C        -0.760012         0.976865         0.118687
 C        -0.669219         1.625983        -1.373390
 C        -1.976870         2.293798        -0.891434
 C        -3.000646         2.676316        -1.993531
 O        -3.414552         1.302979        -1.977429
 C        -2.858845         1.137741        -0.652117
 C        -1.962234         0.070982        -0.030708
 C        -1.315073         2.532604         0.529431
 H         0.151122        -0.423676         1.242757
 H         0.176107         2.334656        -1.517028
 H        -0.643968         1.038083        -2.314930
 H        -3.754946         3.316428        -1.461482
 H        -2.861834         2.901150        -3.057890
 H        -3.657816         1.452275         0.037270
 H        -2.414240        -0.178177         0.858837
 H        -1.618949        -0.729349        -0.661408
 H        -0.397083         3.255473         0.454196
 H        -2.130106         2.480705         1.261694
