19
Iteration:  4762charge 0 multiplicity 1
 O         0.185167         0.307478         0.917284
 C        -0.716350         1.041357         0.073339
 C        -0.603808         1.800594        -1.317361
 C        -1.968271         2.372551        -0.819890
 C        -3.063728         2.683809        -1.954104
 O        -3.349374         1.236637        -2.080390
 C        -2.888668         1.029114        -0.622964
 C        -1.837603         0.024223        -0.127447
 C        -1.411694         2.516601         0.545664
 H         1.060580         0.643995         0.884526
 H         0.315607         2.497745        -1.412579
 H        -0.691023         1.264847        -2.288836
 H        -4.055004         3.226289        -1.650908
 H        -2.722891         2.976870        -2.985870
 H        -3.863434         1.135754        -0.122747
 H        -2.244374        -0.473578         0.792041
 H        -1.379534        -0.632466        -0.788782
 H        -0.540804         3.263821         0.607100
 H        -1.989153         2.360008         1.475215
