19
Iteration:  2343
 O         0.418570         0.592303         0.673211
 C        -0.778911         1.030815         0.194940
 C        -0.640240         1.434684        -1.279009
 C        -1.949273         2.230448        -0.896010
 C        -2.890920         2.681441        -1.995390
 O        -3.580770         1.310645        -1.955001
 C        -2.969482         1.181244        -0.629733
 C        -2.028034         0.081319        -0.104784
 C        -1.245308         2.406843         0.559434
 H         0.413592         0.333745         1.663984
 H         0.303370         2.041967        -1.523127
 H        -0.684467         0.562216        -2.050892
 H        -3.502331         3.522151        -1.816679
 H        -2.364690         3.086388        -2.954607
 H        -3.764689         1.517540         0.108299
 H        -2.218490        -0.369975         0.894290
 H        -1.842766        -0.698723        -0.853427
 H        -0.425126         3.015059         0.627074
 H        -1.912749         2.579093         1.437673
