19
Iteration:  2427
 O         0.490552         0.502010         0.696283
 C        -0.747046         0.952274         0.163049
 C        -0.735226         1.529348        -1.292181
 C        -1.988500         2.350556        -0.862992
 C        -2.914559         2.660953        -2.029564
 O        -3.455365         1.323866        -1.952406
 C        -2.901734         1.188189        -0.613068
 C        -2.088722         0.023171         0.031411
 C        -1.321013         2.472276         0.419462
 H         0.309899        -0.217320         1.276241
 H         0.173958         2.031418        -1.344842
 H        -0.905520         0.829953        -2.080974
 H        -3.799631         3.455243        -1.780511
 H        -2.314826         2.919836        -2.909288
 H        -3.654358         1.464277         0.173637
 H        -2.431249        -0.443608         1.026515
 H        -1.765877        -0.696891        -0.706413
 H        -0.454099         3.215661         0.508233
 H        -1.970590         2.705516         1.359745
