19
Iteration:   466charge 0 multiplicity 1
 O         0.414763         0.522256         0.786523
 C        -0.802172         1.002233         0.163434
 C        -0.675112         1.725175        -1.285795
 C        -1.991968         2.303778        -0.818478
 C        -3.006287         2.743719        -1.918372
 O        -3.359657         1.363252        -2.135265
 C        -2.886208         1.043599        -0.683716
 C        -1.896481        -0.001766        -0.103352
 C        -1.469911         2.279106         0.662541
 H         1.068813         0.215675         0.153985
 H         0.173388         2.428508        -1.269778
 H        -0.590216         1.037421        -2.170307
 H        -3.839700         3.398131        -1.466827
 H        -2.566711         3.199673        -2.848320
 H        -3.852247         1.072135        -0.201804
 H        -2.417177        -0.395949         0.747480
 H        -1.555627        -0.881190        -0.609159
 H        -0.798708         2.973773         0.984661
 H        -2.376845         2.233639         1.287641
