19
Iteration:  1589charge 0 multiplicity 1
 O         0.436694         0.377501         0.733529
 C        -0.690936         0.989341         0.122207
 C        -0.719019         1.577813        -1.293640
 C        -1.974797         2.270662        -0.879747
 C        -2.895469         2.724636        -2.017957
 O        -3.452140         1.297611        -2.032120
 C        -2.967819         1.175174        -0.652167
 C        -1.963590         0.083693        -0.001106
 C        -1.411778         2.450238         0.604596
 H         0.643251         0.832512         1.524031
 H         0.064138         2.377781        -1.327768
 H        -0.654711         1.063225        -2.271369
 H        -3.747164         3.390797        -1.922398
 H        -2.285960         2.906575        -2.916334
 H        -3.859446         1.318239         0.083003
 H        -2.288323        -0.302806         1.001581
 H        -1.749448        -0.711957        -0.733479
 H        -0.783449         3.260267         0.609157
 H        -2.221983         2.393059         1.362731
