19
Iteration:  2842
 O         0.333031         0.426126         0.642426
 C        -0.765250         1.061663         0.174652
 C        -0.573026         1.559359        -1.236667
 C        -1.947868         2.338878        -0.879911
 C        -2.999953         2.604767        -2.051438
 O        -3.463547         1.250241        -1.986847
 C        -2.917397         1.159969        -0.572147
 C        -1.957330         0.107355        -0.075801
 C        -1.331931         2.515525         0.566688
 H         0.125628         0.050985         1.500888
 H         0.290799         2.312712        -1.151890
 H        -0.650461         0.909345        -2.208480
 H        -3.706545         3.390663        -1.623262
 H        -2.577580         2.847030        -3.035381
 H        -3.816419         1.533047         0.116799
 H        -2.312163        -0.362679         0.767606
 H        -1.668412        -0.617876        -0.773703
 H        -0.413389         3.009320         0.455854
 H        -1.884893         2.530109         1.573548
