19
Iteration:  2351
 O         0.441632         0.511091         0.724814
 C        -0.721233         1.046698         0.202974
 C        -0.648747         1.431939        -1.285854
 C        -1.945448         2.246559        -0.883026
 C        -2.898825         2.715080        -1.939495
 O        -3.550580         1.318535        -1.982447
 C        -2.950253         1.126855        -0.593907
 C        -2.065906         0.092921        -0.141954
 C        -1.291116         2.484572         0.451607
 H         0.409890         0.439913         1.730388
 H         0.203544         2.041765        -1.457188
 H        -0.749190         0.687420        -2.058623
 H        -3.655864         3.417098        -1.563103
 H        -2.494738         2.716725        -2.916098
 H        -3.709155         1.593344         0.182715
 H        -2.275373        -0.479556         0.783900
 H        -1.908588        -0.616301        -0.889543
 H        -0.471912         3.277006         0.444286
 H        -1.961529         2.510178         1.358336
