19
Iteration:  4389
 O         0.187185         0.346085         0.776905
 C        -0.782303         1.037304         0.088195
 C        -0.568843         1.719034        -1.247042
 C        -1.904267         2.396710        -0.818011
 C        -3.049286         2.584880        -1.997006
 O        -3.308070         1.203024        -2.024286
 C        -2.916781         1.127861        -0.612093
 C        -1.933368         0.037528        -0.165415
 C        -1.363108         2.537524         0.604007
 H         0.986837         0.920495         0.866825
 H         0.124354         2.539505        -1.079825
 H        -0.545814         1.250118        -2.275470
 H        -3.901562         3.154013        -1.542017
 H        -2.733481         2.958030        -2.950880
 H        -3.823080         1.225575         0.104075
 H        -2.333272        -0.606047         0.682896
 H        -1.637442        -0.678865        -0.981499
 H        -0.552335         3.360431         0.686759
 H        -2.050220         2.387312         1.437560
