19
Iteration:   691
 O         0.379593         0.454333         0.846532
 C        -0.738133         1.002666         0.110790
 C        -0.668646         1.648833        -1.285649
 C        -2.021057         2.207101        -0.793779
 C        -2.947619         2.712168        -1.953637
 O        -3.490664         1.375556        -2.079656
 C        -2.914610         1.041249        -0.737446
 C        -1.857136         0.018467        -0.082141
 C        -1.406723         2.387583         0.587605
 H         1.075837         1.208207         0.693247
 H         0.228246         2.200867        -1.404906
 H        -0.891073         1.131873        -2.208622
 H        -3.664280         3.484808        -1.510928
 H        -2.591859         3.182165        -2.918318
 H        -3.875546         1.212463        -0.093808
 H        -2.289504        -0.299909         0.920862
 H        -1.518918        -0.840289        -0.747176
 H        -0.738892         3.279517         0.601387
 H        -1.927222         2.531765         1.472536
