19
Iteration:  4372
 O         0.324560         0.380201         0.755967
 C        -0.796914         1.032231         0.152969
 C        -0.603230         1.761978        -1.241876
 C        -1.980429         2.352011        -0.903508
 C        -2.988709         2.694620        -1.987156
 O        -3.374632         1.168367        -1.995335
 C        -2.824864         1.179050        -0.717863
 C        -1.987631         0.063803        -0.128830
 C        -1.445442         2.369408         0.646706
 H         1.040396         1.030889         0.804693
 H         0.294359         2.445467        -1.174862
 H        -0.633849         0.962354        -1.945962
 H        -3.953241         3.188544        -1.862198
 H        -2.570743         2.842636        -3.051044
 H        -3.432349         1.479089         0.170053
 H        -2.369648        -0.398571         0.819760
 H        -1.836407        -0.717634        -0.854431
 H        -0.611167         2.969531         0.886352
 H        -2.215419         2.570782         1.412489
