19
Iteration:  4386charge 0 multiplicity 1
 O         0.192717         0.359104         0.759558
 C        -0.786668         1.025248         0.099494
 C        -0.569315         1.729867        -1.228616
 C        -1.924403         2.418053        -0.823894
 C        -3.051558         2.585756        -2.016672
 O        -3.323145         1.183457        -2.003853
 C        -2.866445         1.136445        -0.608463
 C        -1.964936         0.017486        -0.165706
 C        -1.366150         2.520719         0.606385
 H         1.002889         0.946331         0.861138
 H         0.228228         2.533028        -1.218770
 H        -0.456990         1.219706        -2.242888
 H        -3.811451         3.184395        -1.565965
 H        -2.687676         3.049963        -2.901806
 H        -3.824630         1.285921        -0.046622
 H        -2.358016        -0.499399         0.620897
 H        -1.622696        -0.672407        -0.939285
 H        -0.545737         3.306235         0.740144
 H        -2.101196         2.347338         1.474714
