19
Iteration:  4370charge 0 multiplicity 1
 O         0.341985         0.381660         0.759944
 C        -0.797427         1.031899         0.157133
 C        -0.610257         1.749449        -1.244318
 C        -1.957159         2.343061        -0.905855
 C        -2.982986         2.704493        -1.990799
 O        -3.382326         1.179003        -2.003795
 C        -2.852230         1.174087        -0.718871
 C        -1.971627         0.079363        -0.121586
 C        -1.460759         2.357487         0.656282
 H         1.086096         1.072390         0.802131
 H         0.232729         2.439443        -1.156366
 H        -0.663270         0.994713        -1.976295
 H        -3.982055         3.213456        -1.876615
 H        -2.557737         2.813012        -3.043072
 H        -3.417494         1.451726         0.159033
 H        -2.392993        -0.409340         0.872906
 H        -1.846924        -0.744867        -0.848459
 H        -0.627915         2.983130         0.838985
 H        -2.210687         2.525472         1.366206
