19
Iteration:  1972charge 0 multiplicity 1
 O         0.511649         0.553641         0.836516
 C        -0.778292         0.979584         0.086815
 C        -0.735232         1.502677        -1.309892
 C        -1.998501         2.223569        -0.858194
 C        -2.844565         2.653834        -2.045352
 O        -3.480320         1.347413        -1.962299
 C        -2.974912         1.187098        -0.608145
 C        -2.072995         0.099222         0.005872
 C        -1.299847         2.414677         0.519026
 H         1.033911         0.201492         0.035910
 H         0.049411         2.118148        -1.612048
 H        -0.907343         0.736344        -2.056225
 H        -3.698659         3.390077        -1.939681
 H        -2.264898         2.966545        -2.958985
 H        -3.741368         1.526827         0.091649
 H        -2.425024        -0.423896         0.922268
 H        -1.949084        -0.777142        -0.564434
 H        -0.549192         3.184777         0.479906
 H        -2.208921         2.531107         1.364726
