19
Iteration:  4827charge 0 multiplicity 1
 O         0.383612         0.540913         0.824222
 C        -0.753616         1.010080         0.138683
 C        -0.673616         1.588825        -1.279371
 C        -2.071003         2.235015        -0.805153
 C        -2.873948         2.729133        -1.934233
 O        -3.409931         1.408900        -2.134912
 C        -2.949280         0.972193        -0.771392
 C        -1.897109         0.038692        -0.018124
 C        -1.455233         2.321037         0.571675
 H         1.002050         1.319062         0.853315
 H         0.186000         2.357561        -1.325024
 H        -0.760642         1.126978        -2.272779
 H        -3.677179         3.498580        -1.639657
 H        -2.367369         2.981574        -2.904850
 H        -3.683364         1.025634         0.133612
 H        -2.389087        -0.244059         0.996358
 H        -1.493529        -0.836452        -0.487872
 H        -0.800958         3.235469         0.616557
 H        -2.125902         2.190316         1.394428
