19
Iteration:   196
 O         0.458078         0.497834         0.866982
 C        -0.644175         1.016048         0.180246
 C        -0.687038         1.696148        -1.238249
 C        -2.030777         2.211628        -0.841386
 C        -2.935092         2.733543        -1.883521
 O        -3.492403         1.415629        -2.067892
 C        -2.868025         0.990999        -0.752962
 C        -1.841648        -0.091740        -0.286037
 C        -1.598270         2.476367         0.660893
 H         1.055129        -0.043586         0.270302
 H        -0.080469         2.545374        -1.189301
 H        -0.590761         0.992040        -2.014325
 H        -3.651584         3.450190        -1.379804
 H        -2.589846         3.135048        -2.826542
 H        -3.744797         1.082324        -0.070835
 H        -2.302014        -0.694641         0.510620
 H        -1.380943        -0.740217        -1.100052
 H        -1.101926         3.362648         0.778870
 H        -2.415265         2.497844         1.394505
