19
Iteration:    98charge 0 multiplicity 1
 O         0.528036         0.636219         0.714693
 C        -0.805407         1.048749         0.193324
 C        -0.682317         1.619800        -1.171831
 C        -2.039975         2.283138        -0.749494
 C        -2.957237         2.759319        -1.902436
 O        -3.408658         1.309466        -2.117603
 C        -2.947060         1.004369        -0.784046
 C        -1.950880        -0.058646        -0.194018
 C        -1.452980         2.401429         0.665729
 H         0.449848        -0.365928         0.773992
 H         0.135697         2.328658        -1.099164
 H        -0.599453         1.072985        -2.091608
 H        -3.919928         3.308286        -1.686058
 H        -2.424489         3.081199        -2.797685
 H        -3.857012         1.113131        -0.131523
 H        -2.291629        -0.609589         0.692970
 H        -1.469239        -0.735369        -0.939662
 H        -0.659113         3.023735         0.652423
 H        -1.856367         2.558570         1.605569
