19
Iteration:  1310charge 0 multiplicity 1
 O         0.366673         0.400684         0.685833
 C        -0.741628         0.961329         0.079924
 C        -0.593210         1.752667        -1.234313
 C        -1.978635         2.310826        -0.849103
 C        -3.065626         2.597988        -1.975911
 O        -3.296174         1.211737        -1.994329
 C        -2.882233         1.192645        -0.659093
 C        -2.024850         0.156156        -0.112217
 C        -1.382028         2.431126         0.609587
 H        -0.048638         0.113569         1.588810
 H         0.054404         2.607149        -1.201437
 H        -0.353902         1.164943        -2.132621
 H        -3.908878         3.190577        -1.517641
 H        -2.662440         3.074217        -2.863539
 H        -3.770719         1.393104        -0.060760
 H        -2.451170        -0.417911         0.841720
 H        -1.795871        -0.744616        -0.809575
 H        -0.667939         3.264164         0.628648
 H        -2.108296         2.314454         1.370573
