19
Iteration:  2028
 O         0.389917         0.354656         0.892349
 C        -0.750085         1.006571         0.088146
 C        -0.611473         1.497910        -1.388021
 C        -1.907024         2.302356        -1.006916
 C        -3.077534         2.743919        -1.886407
 O        -3.436914         1.252456        -1.953832
 C        -2.861768         1.141971        -0.560656
 C        -1.970433         0.095441        -0.094758
 C        -1.303476         2.629075         0.393876
 H        -0.143292        -0.147472         1.514040
 H         0.229053         2.122692        -1.467873
 H        -0.835835         0.804182        -2.179526
 H        -3.950572         3.147627        -1.314420
 H        -2.884892         3.134241        -2.883128
 H        -3.632170         1.329623         0.106219
 H        -2.360499        -0.237670         0.890237
 H        -1.691427        -0.636829        -0.824778
 H        -0.607728         3.442163         0.613295
 H        -2.192432         2.912538         1.206199
