19
Iteration:  2765
 O         0.387858         0.453258         0.761394
 C        -0.781176         0.966281         0.088538
 C        -0.692932         1.557861        -1.286241
 C        -1.936960         2.311193        -0.911207
 C        -3.022121         2.668317        -1.832342
 O        -3.356787         1.299156        -2.037225
 C        -2.936640         1.137062        -0.648166
 C        -2.028301         0.025868        -0.033416
 C        -1.259671         2.542409         0.429784
 H         0.176024         0.357084         1.750847
 H         0.230187         2.153380        -1.552274
 H        -0.688710         0.820634        -2.171283
 H        -3.863228         3.248827        -1.301751
 H        -2.607931         3.258662        -2.683390
 H        -3.812908         1.365237        -0.026105
 H        -2.336678        -0.259275         0.947902
 H        -1.898541        -0.887952        -0.534353
 H        -0.381256         3.147637         0.325291
 H        -2.028619         2.841940         1.189542
