19
Iteration:   653
 O         0.400794         0.560500         0.771386
 C        -0.781391         0.946969         0.142624
 C        -0.656677         1.638276        -1.281881
 C        -1.952837         2.324596        -0.836247
 C        -2.978072         2.666963        -1.957101
 O        -3.336172         1.266926        -2.045512
 C        -2.984767         1.132738        -0.654567
 C        -2.001612         0.103035        -0.170179
 C        -1.398267         2.363402         0.702498
 H         1.060808         0.210830         0.089354
 H         0.276348         2.306232        -1.176885
 H        -0.685079         0.937274        -2.175423
 H        -3.837032         3.049083        -1.545590
 H        -2.683991         3.124408        -2.857805
 H        -3.801872         1.287585         0.029326
 H        -2.221521        -0.515506         0.667775
 H        -1.797073        -0.643863        -0.900526
 H        -0.678102         3.143990         0.626363
 H        -2.234894         2.348850         1.514002
