19
Iteration:  4532charge 0 multiplicity 1
 O         0.294056         0.382282         0.856971
 C        -0.755508         0.977566         0.082124
 C        -0.607616         1.699627        -1.241873
 C        -2.003810         2.342462        -0.920589
 C        -3.086289         2.710834        -1.911294
 O        -3.299765         1.225796        -2.108530
 C        -2.834485         1.104004        -0.670807
 C        -1.950426         0.093912        -0.071083
 C        -1.412867         2.420124         0.584389
 H         1.055260         0.929844         0.741620
 H         0.204669         2.490286        -1.098384
 H        -0.578677         1.111568        -2.173334
 H        -3.974127         3.119994        -1.449375
 H        -2.862563         3.153509        -2.863898
 H        -3.781554         1.286662        -0.113474
 H        -2.304940        -0.522793         0.796345
 H        -1.737037        -0.595960        -0.872148
 H        -0.597211         3.280772         0.633244
 H        -2.132694         2.420655         1.435231
