19
Iteration:  2618
 O         0.289380         0.405172         0.725501
 C        -0.693448         1.088210         0.088264
 C        -0.695951         1.584464        -1.349784
 C        -2.004925         2.296964        -0.907889
 C        -3.030123         2.653428        -1.914405
 O        -3.348794         1.232228        -2.061997
 C        -2.900664         1.113665        -0.589888
 C        -1.981377         0.190523         0.076352
 C        -1.227727         2.475729         0.530969
 H        -0.077190        -0.363401         1.219533
 H         0.140812         2.282705        -1.572448
 H        -0.816983         0.806670        -2.089179
 H        -3.912659         3.248772        -1.604364
 H        -2.671261         3.218676        -2.829683
 H        -3.818740         1.220286        -0.132902
 H        -2.242569        -0.068360         1.027798
 H        -1.815088        -0.631973        -0.640749
 H        -0.334098         3.187765         0.517140
 H        -1.700244         2.659087         1.502826
