19
Iteration:  4859
 O         0.308308         0.393391         0.869804
 C        -0.743809         1.044975         0.156936
 C        -0.670310         1.631269        -1.269946
 C        -2.051598         2.328314        -0.787951
 C        -3.073214         2.705099        -1.942615
 O        -3.266011         1.244296        -2.104767
 C        -2.884516         1.064053        -0.687125
 C        -1.942651         0.062616        -0.170813
 C        -1.367998         2.444085         0.546360
 H         0.930785         1.098373         0.824550
 H         0.282055         2.253567        -1.278746
 H        -0.790675         1.156251        -2.241165
 H        -3.927981         3.228446        -1.466578
 H        -2.737153         3.213840        -2.873563
 H        -3.769635         1.351482         0.011006
 H        -2.356179        -0.504060         0.802031
 H        -1.520283        -0.634325        -0.903062
 H        -0.645747         3.312636         0.532762
 H        -1.945894         2.540049         1.436900
