19
Iteration:  3794charge 0 multiplicity 1
 O         0.337953         0.516606         0.954582
 C        -0.692107         1.072842         0.103379
 C        -0.750331         1.566786        -1.370615
 C        -1.957355         2.348203        -0.921260
 C        -3.003325         2.651389        -1.919367
 O        -3.404322         1.230425        -2.052683
 C        -2.867999         1.150209        -0.681954
 C        -1.998019         0.103232         0.014091
 C        -1.246347         2.404436         0.461752
 H         0.315313        -0.439404         0.987957
 H         0.190446         2.232262        -1.579114
 H        -1.065989         0.931383        -2.247525
 H        -3.810781         3.275941        -1.535608
 H        -2.735021         3.086001        -2.942856
 H        -3.802728         1.544268        -0.085565
 H        -2.357113        -0.364038         0.960668
 H        -1.784126        -0.759321        -0.746299
 H        -0.375715         3.087511         0.480027
 H        -1.935117         2.487158         1.272512
