19
Iteration:  2463charge 0 multiplicity 1
 O         0.497246         0.474066         0.676223
 C        -0.724039         1.034154         0.100995
 C        -0.691433         1.498483        -1.319262
 C        -2.012710         2.282119        -0.827016
 C        -2.856684         2.654927        -2.017696
 O        -3.512876         1.352167        -2.036736
 C        -3.019913         1.160552        -0.575141
 C        -2.018001         0.131623         0.079271
 C        -1.304902         2.412352         0.516008
 H         0.398594         0.183641         1.562871
 H         0.166849         2.167243        -1.531849
 H        -0.705565         0.702054        -2.096334
 H        -3.765872         3.381158        -1.911965
 H        -2.303897         2.880219        -3.005790
 H        -3.904232         1.555288         0.080479
 H        -2.230736        -0.340663         1.030475
 H        -1.880637        -0.676276        -0.611227
 H        -0.588995         3.179265         0.582713
 H        -2.014751         2.256954         1.399319
