19
Iteration:  4465charge 0 multiplicity 1
 O         0.474135         0.570515         0.825322
 C        -0.738565         0.967324         0.114363
 C        -0.662444         1.627283        -1.261340
 C        -1.914430         2.194057        -0.827534
 C        -2.956863         2.731075        -1.959439
 O        -3.389130         1.306967        -2.035422
 C        -2.937236         1.069969        -0.763280
 C        -2.106828        -0.010866        -0.151727
 C        -1.465026         2.393527         0.602875
 H         0.944209         1.446600         0.956125
 H         0.229452         2.246230        -1.082496
 H        -0.620675         0.918936        -2.147626
 H        -3.600696         3.465612        -1.524954
 H        -2.378059         3.125424        -2.721621
 H        -3.728520         1.379505        -0.008958
 H        -2.541678        -0.530713         0.696572
 H        -1.821037        -0.762049        -0.883104
 H        -0.795816         3.344510         0.883225
 H        -2.282238         2.246505         1.365812
