19
Iteration:  3566
 O         0.248688         0.496977         0.992168
 C        -0.683651         0.981021         0.041280
 C        -0.558756         1.625966        -1.453475
 C        -1.894161         2.270621        -0.969909
 C        -3.074394         2.640263        -1.906822
 O        -3.406822         1.256581        -1.955090
 C        -2.852459         1.175318        -0.626367
 C        -2.080536         0.087171        -0.043033
 C        -1.319411         2.474985         0.479583
 H         0.973990         0.053869         0.499852
 H         0.323335         2.258386        -1.678024
 H        -0.615640         0.860489        -2.274419
 H        -3.746546         3.357204        -1.455830
 H        -2.872978         2.965241        -2.923260
 H        -3.686718         1.567338         0.052515
 H        -2.456140        -0.270181         0.927206
 H        -1.912850        -0.880969        -0.663653
 H        -0.411714         3.168715         0.659160
 H        -2.119964         2.395594         1.238290
