19
Iteration:  4718charge 0 multiplicity 1
 O         0.392546         0.573799         0.800006
 C        -0.839518         0.940760         0.109368
 C        -0.605478         1.548400        -1.240746
 C        -2.018292         2.285845        -0.852169
 C        -2.993855         2.689771        -1.914655
 O        -3.355404         1.358232        -2.102717
 C        -2.906983         1.077260        -0.707081
 C        -1.951102        -0.042379        -0.120995
 C        -1.413962         2.402934         0.600817
 H         0.873942         1.315388         1.092143
 H         0.198900         2.397306        -1.181477
 H        -0.387596         0.960044        -2.161009
 H        -3.852230         3.341400        -1.467339
 H        -2.543691         3.087502        -2.873020
 H        -3.774064         1.401777        -0.109138
 H        -2.273834        -0.520765         0.855513
 H        -1.829788        -0.772174        -0.849989
 H        -0.629969         3.217375         0.892450
 H        -2.239024         2.418305         1.367544
