19
Iteration:  2950charge 0 multiplicity 1
 O         0.303939         0.464935         0.649129
 C        -0.746120         1.062955         0.085632
 C        -0.605441         1.705802        -1.281796
 C        -1.988447         2.299068        -0.796917
 C        -2.896980         2.607983        -2.064173
 O        -3.455222         1.249450        -1.942232
 C        -2.954523         1.109113        -0.653937
 C        -1.980286         0.124911        -0.031222
 C        -1.297923         2.417960         0.624624
 H         0.048051        -0.269964         1.301008
 H         0.333833         2.297011        -1.301539
 H        -0.565182         1.139491        -2.241683
 H        -3.640663         3.364895        -1.915150
 H        -2.360648         2.747040        -3.031265
 H        -3.709849         1.448323        -0.012056
 H        -2.341029        -0.349661         0.932271
 H        -1.745041        -0.763746        -0.594554
 H        -0.450885         3.099558         0.695999
 H        -2.126868         2.521273         1.488721
