19
Iteration:  1081charge 0 multiplicity 1
 O         0.324701         0.447465         0.763995
 C        -0.735168         1.031066         0.119771
 C        -0.655753         1.605041        -1.316499
 C        -1.931637         2.366369        -0.905411
 C        -3.064664         2.645306        -1.918486
 O        -3.356048         1.297267        -2.026184
 C        -2.884979         1.116017        -0.602763
 C        -1.979132         0.051363        -0.094161
 C        -1.299348         2.427167         0.524432
 H         0.024615         0.439786         1.704466
 H         0.197607         2.304851        -1.484088
 H        -0.776507         0.875989        -2.148243
 H        -3.783200         3.341973        -1.430604
 H        -2.787835         3.027707        -2.894041
 H        -3.691591         1.341698        -0.074993
 H        -2.423382        -0.485232         0.864029
 H        -1.603657        -0.765193        -0.842241
 H        -0.587902         3.246664         0.660931
 H        -2.065489         2.442649         1.373445
