19
Iteration:  3771charge 0 multiplicity 1
 O         0.356216         0.592928         0.861535
 C        -0.733691         1.054950         0.130891
 C        -0.587596         1.449698        -1.320380
 C        -2.044552         2.209868        -0.840460
 C        -2.887382         2.711957        -2.000773
 O        -3.479291         1.368872        -1.993551
 C        -2.982258         1.058135        -0.599543
 C        -1.979397         0.014988        -0.061601
 C        -1.331634         2.539595         0.480791
 H         0.815287        -0.259186         0.573285
 H         0.247106         2.219470        -1.381412
 H        -0.504124         0.655909        -2.141558
 H        -3.680118         3.390869        -1.873428
 H        -2.482416         2.919464        -3.054000
 H        -3.935345         1.216639         0.033411
 H        -2.434485        -0.460191         0.871019
 H        -1.713356        -0.885035        -0.777466
 H        -0.425186         3.176777         0.341327
 H        -1.978368         2.771186         1.285199
