19
Iteration:  4102charge 0 multiplicity 1
 O         0.465310         0.508020         0.725461
 C        -0.766278         1.003144         0.177948
 C        -0.622150         1.607458        -1.178188
 C        -1.968773         2.295342        -0.905825
 C        -2.919231         2.669702        -2.017821
 O        -3.614792         1.339790        -2.076910
 C        -2.912571         1.091362        -0.671811
 C        -1.919887        -0.017247        -0.044430
 C        -1.375220         2.421997         0.575674
 H         0.654447         0.955371         1.545167
 H         0.257386         2.271638        -1.227186
 H        -0.547875         1.069712        -2.133310
 H        -3.751872         3.508483        -1.978616
 H        -2.331308         2.960425        -2.927641
 H        -3.808346         1.297931         0.061119
 H        -2.390202        -0.434487         0.877727
 H        -1.600481        -0.950008        -0.642778
 H        -0.766371         3.290179         0.707873
 H        -2.130741         2.197976         1.329986
