19
Iteration:    53charge 0 multiplicity 1
 O         0.174228         0.505190         0.863169
 C        -0.764211         1.039870         0.030682
 C        -0.554961         1.723703        -1.306266
 C        -1.964112         2.263907        -0.868773
 C        -3.011496         2.774303        -1.831140
 O        -3.486242         1.215284        -1.977834
 C        -2.819799         1.067122        -0.741876
 C        -1.830096         0.025082        -0.211215
 C        -1.392924         2.352081         0.566795
 H         1.127128         0.731108         0.632030
 H         0.240257         2.472423        -1.367647
 H        -0.476919         1.050125        -2.151712
 H        -3.834575         3.362105        -1.297381
 H        -2.611028         3.121514        -2.754121
 H        -3.523102         1.141176         0.127562
 H        -2.297752        -0.314844         0.755349
 H        -1.473275        -0.815883        -0.838595
 H        -0.708043         3.071573         0.828671
 H        -2.023985         2.292091         1.462762
