19
Iteration:  3472
 O         0.358403         0.385312         0.710240
 C        -0.788377         0.988359         0.101113
 C        -0.629480         1.643622        -1.275347
 C        -1.873120         2.427633        -0.870724
 C        -3.045766         2.660023        -1.978405
 O        -3.360932         1.119754        -2.028237
 C        -2.867547         1.175026        -0.634767
 C        -2.037548         0.131097        -0.065174
 C        -1.360969         2.486465         0.575701
 H         0.346917         0.447782         1.712289
 H         0.242922         2.380448        -1.240559
 H        -0.569672         1.008244        -2.152994
 H        -3.958998         3.311586        -1.612375
 H        -2.851684         3.033436        -3.025443
 H        -3.581908         1.570409         0.016125
 H        -2.419743        -0.170687         0.969689
 H        -1.901350        -0.717483        -0.639792
 H        -0.472277         3.023994         0.695824
 H        -2.167821         2.471323         1.349416
