19
Iteration:  3550
 O         0.350274         0.605809         0.902176
 C        -0.782016         0.993858         0.112236
 C        -0.651276         1.466190        -1.322511
 C        -1.902024         2.336273        -0.922147
 C        -2.977711         2.730880        -1.929283
 O        -3.461080         1.209626        -2.034791
 C        -2.922958         1.183866        -0.686571
 C        -1.964475         0.116384        -0.031762
 C        -1.298895         2.358995         0.496868
 H         0.761746        -0.244004         0.529351
 H         0.221594         2.124906        -1.486680
 H        -0.791738         0.821255        -2.224589
 H        -3.906872         3.218312        -1.441814
 H        -2.689475         3.246322        -2.918888
 H        -3.640807         1.530172         0.003841
 H        -2.392964        -0.257878         0.933696
 H        -1.898636        -0.720745        -0.668105
 H        -0.578470         3.111573         0.643428
 H        -1.932039         2.484582         1.374714
