19
Iteration:  1677charge 0 multiplicity 1
 O         0.272534         0.420496         0.814800
 C        -0.718551         1.078636         0.097339
 C        -0.555782         1.655133        -1.287276
 C        -1.925191         2.335649        -0.897882
 C        -2.986363         2.671391        -2.009165
 O        -3.551193         1.218188        -1.972427
 C        -2.929618         1.118465        -0.595918
 C        -1.909045         0.127433        -0.081603
 C        -1.264463         2.414575         0.510439
 H        -0.246671        -0.341218         0.909903
 H         0.230353         2.413945        -1.474953
 H        -0.430383         0.929318        -2.147282
 H        -3.777278         3.400914        -1.840813
 H        -2.379945         2.923946        -2.898580
 H        -3.739221         1.539465         0.128049
 H        -2.113341        -0.280605         1.053523
 H        -1.727936        -0.701643        -0.817082
 H        -0.554180         3.150348         0.562676
 H        -1.951108         2.525645         1.438931
