19
Iteration:  1745
 O         0.420492         0.604552         0.869984
 C        -0.705626         1.032311         0.083359
 C        -0.688933         1.510017        -1.355825
 C        -1.987572         2.203072        -0.875421
 C        -2.922526         2.741700        -1.862520
 O        -3.490575         1.360484        -2.137434
 C        -2.968084         1.101224        -0.644807
 C        -1.998680         0.059592        -0.005750
 C        -1.268335         2.364231         0.451447
 H         0.279873        -0.294185         1.171141
 H         0.233702         2.170636        -1.489331
 H        -0.757900         0.710347        -2.196488
 H        -3.643560         3.433007        -1.357940
 H        -2.640662         3.133882        -2.857302
 H        -3.829242         1.370144         0.058977
 H        -2.305591        -0.251883         1.132826
 H        -1.836306        -0.897459        -0.552318
 H        -0.604964         3.164570         0.718915
 H        -1.907987         2.477744         1.379094
