19
Iteration:  1931charge 0 multiplicity 1
 O         0.371078         0.321486         0.724118
 C        -0.720191         0.986367         0.183114
 C        -0.717335         1.583864        -1.336207
 C        -1.954838         2.325042        -0.925578
 C        -2.964384         2.667706        -2.027696
 O        -3.417352         1.268586        -1.959424
 C        -2.872188         1.161608        -0.588197
 C        -2.056413         0.119002         0.042447
 C        -1.335450         2.512561         0.473257
 H         0.980001         1.004710         0.976006
 H         0.120752         2.324235        -1.292977
 H        -0.722658         1.014342        -2.295966
 H        -3.781125         3.411105        -1.856633
 H        -2.528323         2.779820        -3.019161
 H        -3.781421         1.460264         0.129687
 H        -2.501334        -0.153952         1.056148
 H        -1.866644        -0.868213        -0.477672
 H        -0.479777         3.152048         0.491775
 H        -1.864324         2.745199         1.420853
