19
Iteration:  3932
 O         0.305543         0.350058         0.857065
 C        -0.682690         1.087044         0.167469
 C        -0.631287         1.571143        -1.356897
 C        -1.970653         2.326683        -0.994598
 C        -3.049191         2.651773        -1.934556
 O        -3.436192         1.272846        -2.072115
 C        -2.836634         1.093831        -0.624790
 C        -1.945518         0.017841        -0.010331
 C        -1.309129         2.617986         0.456606
 H         0.192677         0.597605         1.767072
 H         0.144400         2.185365        -1.659256
 H        -0.815915         0.758920        -2.074308
 H        -3.933349         3.208892        -1.261249
 H        -3.039760         3.287015        -2.858858
 H        -3.816845         1.211267         0.061880
 H        -2.156430        -0.256776         0.980932
 H        -1.684412        -0.821755        -0.549314
 H        -0.371674         3.278126         0.477589
 H        -1.936160         2.778755         1.334942
