19
Iteration:  3017
 O         0.423153         0.609064         0.739284
 C        -0.835402         0.939931         0.127518
 C        -0.656936         1.531882        -1.311408
 C        -1.897185         2.216816        -0.890030
 C        -2.968690         2.814934        -1.874202
 O        -3.424911         1.361068        -2.069744
 C        -2.918565         1.068346        -0.746675
 C        -2.018630        -0.019949         0.053966
 C        -1.335256         2.390209         0.502888
 H         0.140992         0.360805         1.593889
 H         0.266543         2.154009        -1.388065
 H        -0.804521         0.995826        -2.290860
 H        -3.763325         3.445016        -1.505638
 H        -2.616693         3.150067        -2.843802
 H        -3.684118         1.364192        -0.080652
 H        -2.545510        -0.333865         1.021367
 H        -1.606328        -0.901317        -0.395249
 H        -0.397034         2.926701         0.583446
 H        -2.003925         2.608307         1.460457
