19
Iteration:  3806
 O         0.252617         0.541340         0.870801
 C        -0.772464         0.982381         0.084999
 C        -0.660440         1.585123        -1.455357
 C        -1.884310         2.357441        -0.884549
 C        -3.111693         2.613834        -1.950092
 O        -3.326637         1.231963        -2.040804
 C        -2.827386         1.167439        -0.651790
 C        -1.990586         0.147734         0.022853
 C        -1.240466         2.445335         0.538818
 H         0.025788        -0.434567         0.987877
 H         0.369589         2.119851        -1.624414
 H        -0.747350         0.813683        -2.254823
 H        -3.966618         3.000076        -1.357450
 H        -3.011842         3.059627        -2.973559
 H        -3.705384         1.413307         0.103812
 H        -2.520100        -0.060594         0.957322
 H        -1.759519        -0.827605        -0.527002
 H        -0.412088         3.119173         0.724527
 H        -1.847172         2.435683         1.444531
