19
Iteration:  1541charge 0 multiplicity 1
 O         0.274081         0.355231         0.970552
 C        -0.739412         0.979720         0.119925
 C        -0.616050         1.699014        -1.330572
 C        -1.935986         2.320346        -0.899387
 C        -3.022537         2.665413        -1.947268
 O        -3.404703         1.285457        -1.988769
 C        -2.880301         1.164257        -0.633671
 C        -1.961563         0.034610        -0.166617
 C        -1.387408         2.493803         0.460790
 H         1.172347         0.445681         0.536543
 H         0.130029         2.436218        -1.581522
 H        -0.587750         1.029363        -2.161359
 H        -3.816591         3.301473        -1.487439
 H        -2.754275         3.057098        -2.945426
 H        -3.651201         1.254806         0.324576
 H        -2.307055        -0.473307         0.810481
 H        -1.724656        -0.682300        -1.034224
 H        -0.386162         3.120343         0.549339
 H        -2.084645         2.564672         1.272136
