19
Iteration:  2564
 O         0.424345         0.589879         0.672352
 C        -0.749324         0.992992         0.120877
 C        -0.586077         1.494785        -1.261087
 C        -1.965297         2.184125        -0.931112
 C        -2.830392         2.677150        -2.008490
 O        -3.573764         1.374056        -1.897025
 C        -3.033240         1.191937        -0.631922
 C        -2.026829         0.034492        -0.039507
 C        -1.339368         2.379214         0.502810
 H         0.561608         0.685661         1.677048
 H         0.217958         2.347474        -1.395915
 H        -0.620556         0.784491        -2.126518
 H        -3.496301         3.539041        -1.662777
 H        -2.233073         2.675322        -3.017128
 H        -3.841811         1.393004         0.112659
 H        -2.337503        -0.332761         0.874045
 H        -1.587250        -0.798540        -0.683947
 H        -0.542718         3.170617         0.660646
 H        -1.983636         2.254548         1.354133
