19
Iteration:   418charge 0 multiplicity 1
 O         0.352489         0.591018         0.814661
 C        -0.775141         1.002388         0.066572
 C        -0.664168         1.703525        -1.205970
 C        -1.995071         2.282909        -0.808379
 C        -2.994295         2.723731        -1.888671
 O        -3.314263         1.329628        -2.028044
 C        -2.920342         1.060626        -0.689635
 C        -1.903599        -0.080405        -0.269684
 C        -1.451386         2.389771         0.607343
 H         0.452766        -0.356283         0.955526
 H         0.181641         2.447458        -1.280707
 H        -0.720031         1.167012        -2.175057
 H        -3.806015         3.230881        -1.412069
 H        -2.568405         3.273349        -2.839451
 H        -3.810448         1.254351        -0.059692
 H        -2.130429        -0.875692         0.530449
 H        -1.722528        -0.719902        -1.176586
 H        -0.570086         3.172270         0.862712
 H        -2.081133         2.289085         1.492894
