19
Iteration:   800charge 0 multiplicity 1
 O         0.404338         0.591663         0.702496
 C        -0.779104         0.984822         0.114512
 C        -0.706447         1.585946        -1.244736
 C        -2.003296         2.293609        -0.844470
 C        -2.876337         2.720312        -1.997083
 O        -3.421104         1.340998        -2.021260
 C        -2.936179         1.108917        -0.722439
 C        -1.914072        -0.034872         0.018067
 C        -1.435098         2.406532         0.617876
 H         0.493442        -0.326370         0.628582
 H         0.087221         2.382635        -1.328359
 H        -0.791353         0.956263        -2.194022
 H        -3.596000         3.397290        -1.611431
 H        -2.455816         3.012172        -2.944568
 H        -3.757701         1.058857         0.042074
 H        -2.360991        -0.375709         1.002914
 H        -1.576826        -0.893088        -0.679416
 H        -0.581330         3.240902         0.518954
 H        -1.999578         2.444749         1.585168
