19
Iteration:   204
 O         0.481796         0.556592         0.896947
 C        -0.657651         0.962246         0.155900
 C        -0.633043         1.731824        -1.260004
 C        -1.978340         2.224766        -0.821843
 C        -2.939446         2.746505        -1.930847
 O        -3.569298         1.416920        -2.102330
 C        -2.903674         0.993472        -0.773914
 C        -1.852808        -0.057224        -0.247553
 C        -1.618065         2.426185         0.682213
 H         0.770894        -0.250115         0.315499
 H         0.276061         2.423178        -1.227697
 H        -0.596053         0.966625        -2.046362
 H        -3.687581         3.401209        -1.446794
 H        -2.704492         3.172973        -2.860325
 H        -3.561617         1.035595         0.093885
 H        -2.214865        -0.811720         0.494310
 H        -1.308404        -0.691250        -0.963545
 H        -0.990417         3.377764         0.831779
 H        -2.204044         2.071769         1.671127
