19
Iteration:  1063
 O         0.365101         0.407648         0.766240
 C        -0.740921         1.030927         0.100776
 C        -0.552665         1.656910        -1.382753
 C        -1.950355         2.266698        -0.895664
 C        -2.939832         2.731561        -1.964957
 O        -3.461031         1.166742        -1.919058
 C        -2.893681         1.192369        -0.637777
 C        -1.970224         0.099119        -0.122686
 C        -1.442283         2.475360         0.561852
 H         0.101041        -0.003762         1.633764
 H         0.209909         2.396653        -1.341855
 H        -0.571809         0.997364        -2.254405
 H        -3.855180         3.118124        -1.574733
 H        -2.640167         3.048577        -2.963526
 H        -3.754975         1.609906         0.165319
 H        -2.190606        -0.234646         0.867140
 H        -1.772635        -0.474388        -0.971907
 H        -0.552590         3.050032         0.903829
 H        -2.168699         2.457216         1.293628
