19
Iteration:   496charge 0 multiplicity 1
 O         0.328704         0.444112         0.806016
 C        -0.774401         1.014832         0.133569
 C        -0.614521         1.733249        -1.235732
 C        -1.997309         2.371048        -0.820427
 C        -3.048714         2.662589        -1.827186
 O        -3.284597         1.269440        -2.095080
 C        -2.951159         1.070182        -0.684595
 C        -1.977515         0.009139        -0.282948
 C        -1.379998         2.430772         0.632624
 H         1.213717         0.646701         0.329038
 H         0.237911         2.459018        -1.127415
 H        -0.601248         1.006120        -2.083857
 H        -3.781977         3.033800        -1.200967
 H        -2.816999         3.226856        -2.805454
 H        -3.908032         1.035337        -0.100186
 H        -2.462513        -0.445819         0.659443
 H        -1.645047        -0.868659        -0.890668
 H        -0.446267         3.164806         0.704255
 H        -2.185550         2.418012         1.379119
