19
Iteration:  3859
 O         0.428021         0.594560         0.755654
 C        -0.726901         1.049580         0.153369
 C        -0.713950         1.532475        -1.260898
 C        -2.008923         2.293823        -0.845368
 C        -2.829532         2.727125        -2.127296
 O        -3.543841         1.287589        -2.003859
 C        -2.961330         1.105256        -0.645832
 C        -1.944454         0.005032         0.007765
 C        -1.330944         2.471224         0.584535
 H         0.097942        -0.349734         0.866110
 H         0.162242         2.205864        -1.547047
 H        -0.810995         0.606504        -1.856467
 H        -3.555653         3.463199        -2.194339
 H        -2.303570         2.601372        -3.115644
 H        -3.687797         1.250077         0.105840
 H        -2.363314        -0.327141         1.060236
 H        -1.630724        -0.889056        -0.693740
 H        -0.479635         3.167265         0.725704
 H        -1.997815         2.550179         1.448310
