19
Iteration:  2544
 O         0.439088         0.479861         0.835632
 C        -0.733278         0.936735         0.104089
 C        -0.695196         1.500358        -1.396654
 C        -1.939088         2.274686        -0.880534
 C        -2.990053         2.711413        -2.037092
 O        -3.643593         1.424229        -2.003958
 C        -2.807918         1.102219        -0.617461
 C        -1.938502        -0.001433        -0.020439
 C        -1.313220         2.451361         0.557365
 H         0.423181         0.901816         1.733256
 H         0.283340         2.139598        -1.413024
 H        -0.827179         0.762628        -2.248025
 H        -3.682503         3.556880        -1.836041
 H        -2.533940         2.829845        -3.073691
 H        -3.666647         1.490146         0.036694
 H        -2.364029        -0.270886         0.958883
 H        -1.571688        -0.832216        -0.685836
 H        -0.420071         3.120779         0.650158
 H        -1.979109         2.724215         1.279482
