19
Iteration:  2807
 O         0.545410         0.499199         0.698807
 C        -0.726132         0.987253         0.124668
 C        -0.760855         1.571100        -1.314285
 C        -1.991161         2.278172        -0.794372
 C        -2.845202         2.656771        -2.074061
 O        -3.468128         1.326475        -2.015328
 C        -2.944404         1.184038        -0.597812
 C        -2.027274         0.065846         0.016187
 C        -1.455317         2.436308         0.544406
 H         0.422923        -0.269741         1.268200
 H         0.185801         2.176715        -1.387645
 H        -0.823770         0.952447        -2.300233
 H        -3.557286         3.485052        -1.988954
 H        -2.460846         2.723636        -3.140256
 H        -3.657053         1.513223         0.306398
 H        -2.437158        -0.152581         0.950475
 H        -1.919538        -0.809755        -0.587648
 H        -0.596097         3.162988         0.772759
 H        -1.999385         2.452917         1.532011
