19
Iteration:  1229charge 0 multiplicity 1
 O         0.449603         0.623849         0.829872
 C        -0.774541         0.996698         0.136540
 C        -0.627542         1.567179        -1.309276
 C        -1.944691         2.306754        -0.905071
 C        -2.999545         2.704960        -1.879047
 O        -3.429186         1.334897        -2.081554
 C        -2.912637         1.132533        -0.639802
 C        -2.014672        -0.048829        -0.130752
 C        -1.344636         2.330054         0.485854
 H         0.106848        -0.055912         1.530679
 H         0.217868         2.288965        -1.311171
 H        -0.502327         0.830138        -2.114754
 H        -3.716218         3.351093        -1.315051
 H        -2.720944         3.266040        -2.799169
 H        -3.789584         1.368722        -0.122698
 H        -2.529848        -0.197940         0.991876
 H        -1.794693        -0.881741        -0.795722
 H        -0.678186         3.126495         0.769266
 H        -2.106580         2.292429         1.305821
