19
Iteration:  1907charge 0 multiplicity 1
 O         0.232607         0.294783         0.850946
 C        -0.657502         1.062231         0.066221
 C        -0.640259         1.579620        -1.431705
 C        -1.931221         2.313783        -0.918195
 C        -3.065504         2.662890        -1.930775
 O        -3.422392         1.224301        -2.038273
 C        -2.954849         1.139857        -0.579708
 C        -1.984842         0.210052         0.000535
 C        -1.200180         2.476558         0.479627
 H         0.607861         1.018775         1.352005
 H         0.128039         2.296990        -1.620649
 H        -0.704856         0.807720        -2.204152
 H        -4.014009         3.144671        -1.523265
 H        -2.739956         3.170681        -2.882781
 H        -3.851690         1.585745         0.123857
 H        -1.981862        -0.173723         1.090000
 H        -1.753360        -0.731131        -0.498807
 H        -0.429366         3.221423         0.516813
 H        -1.629322         2.596560         1.627788
