19
Iteration:  2902
 O         0.408561         0.604866         0.769174
 C        -0.783861         1.025728         0.152506
 C        -0.642250         1.413440        -1.292081
 C        -1.955892         2.252783        -0.940692
 C        -2.969169         2.788359        -1.832953
 O        -3.478552         1.350032        -2.067738
 C        -2.924704         1.077754        -0.688342
 C        -2.003969        -0.029966        -0.099392
 C        -1.313868         2.439705         0.507717
 H         0.445797         0.793419         1.680320
 H         0.156967         2.091586        -1.503649
 H        -0.684496         0.769646        -2.129105
 H        -3.690027         3.512355        -1.348389
 H        -2.504324         3.272083        -2.736053
 H        -3.796492         1.196924        -0.001963
 H        -2.531293        -0.450853         0.910149
 H        -1.594119        -1.024165        -0.575661
 H        -0.310473         3.053084         0.580438
 H        -1.862680         2.492034         1.431402
