19
Iteration:  1145
 O         0.455050         0.568463         0.667367
 C        -0.806579         1.006975         0.153658
 C        -0.680231         1.549238        -1.279227
 C        -1.937036         2.297125        -0.871753
 C        -2.908243         2.762570        -1.997750
 O        -3.392310         1.287831        -2.028288
 C        -2.955842         1.146086        -0.697297
 C        -1.996263         0.041647        -0.005233
 C        -1.427540         2.361771         0.623692
 H         0.445015         0.217248         1.514910
 H         0.301129         2.064839        -1.344153
 H        -0.852566         0.940949        -2.179108
 H        -3.663073         3.552752        -1.692735
 H        -2.564943         2.973017        -3.011116
 H        -3.789084         1.051421         0.032376
 H        -2.320681        -0.326815         0.842462
 H        -1.711294        -0.857920        -0.540546
 H        -0.574645         2.920454         0.940547
 H        -2.341546         2.380621         1.312779
