19
Iteration:  1618charge 0 multiplicity 1
 O         0.420772         0.612443         0.675700
 C        -0.760961         1.011217         0.162111
 C        -0.724162         1.460115        -1.299015
 C        -1.936848         2.235044        -0.865988
 C        -2.936481         2.713975        -1.917888
 O        -3.367459         1.380909        -2.098671
 C        -3.002934         1.123308        -0.706017
 C        -2.038490         0.024309         0.006604
 C        -1.300730         2.378119         0.607218
 H         0.365253         0.385783         1.672294
 H         0.043930         2.224135        -1.370427
 H        -0.774874         0.747026        -2.076190
 H        -3.824509         3.308684        -1.617202
 H        -2.356040         3.079133        -2.789295
 H        -3.844025         1.277809        -0.028323
 H        -2.449068        -0.258623         1.057879
 H        -1.846355        -0.994684        -0.473546
 H        -0.348947         3.062325         0.394484
 H        -2.020034         2.522893         1.364536
