19
Iteration:   939charge 0 multiplicity 1
 O         0.372356         0.352350         0.746330
 C        -0.719768         1.042778         0.103723
 C        -0.706491         1.606985        -1.304870
 C        -2.004007         2.269318        -0.873357
 C        -2.948719         2.750884        -1.941954
 O        -3.397395         1.230411        -2.036271
 C        -2.954934         1.147260        -0.620720
 C        -1.928948         0.073585        -0.024331
 C        -1.367709         2.483553         0.512989
 H         0.674672         0.836669         1.568526
 H         0.129361         2.295428        -1.522644
 H        -0.807680         1.118110        -2.261235
 H        -3.869808         3.339645        -1.770311
 H        -2.422271         3.180322        -2.763110
 H        -3.891847         1.445520         0.170252
 H        -2.248490        -0.511373         0.818893
 H        -1.521801        -0.709354        -0.633335
 H        -0.719052         3.295246         0.617960
 H        -1.968496         2.478380         1.412762
