19
Iteration:  1067charge 0 multiplicity 1
 O         0.350262         0.406837         0.774323
 C        -0.757152         1.035101         0.111099
 C        -0.579034         1.651276        -1.414657
 C        -1.917735         2.269989        -0.910418
 C        -2.957371         2.717457        -1.955788
 O        -3.419938         1.191067        -1.927979
 C        -2.929515         1.182110        -0.629400
 C        -1.963768         0.104933        -0.112861
 C        -1.412931         2.470071         0.571939
 H         0.165976         0.086205         1.655391
 H         0.236905         2.430246        -1.397025
 H        -0.555449         0.963018        -2.274558
 H        -3.919405         3.133788        -1.499198
 H        -2.727447         3.047540        -3.013842
 H        -3.666930         1.516340         0.168597
 H        -2.232664        -0.314639         0.858382
 H        -1.741881        -0.539507        -1.006385
 H        -0.576857         3.111729         0.879024
 H        -2.266493         2.419323         1.386802
