19
Iteration:   305charge 0 multiplicity 1
 O         0.507533         0.558248         0.640105
 C        -0.738594         0.995093         0.156693
 C        -0.668220         1.756774        -1.216583
 C        -2.035405         2.231026        -0.807576
 C        -2.937030         2.726816        -1.889899
 O        -3.307146         1.306576        -2.135634
 C        -2.919679         1.069362        -0.758459
 C        -2.031211         0.008905        -0.146505
 C        -1.507792         2.283628         0.706529
 H         0.289288         0.302436         1.508433
 H        -0.056363         2.596630        -1.153986
 H        -0.564790         1.393123        -2.213529
 H        -3.776674         3.235864        -1.376661
 H        -2.566431         3.196344        -2.746820
 H        -3.753685         1.206975        -0.060491
 H        -2.402561        -0.233995         0.856840
 H        -1.862847        -0.941584        -0.739435
 H        -0.794212         3.066877         0.928299
 H        -2.264541         2.076303         1.602041
