19
Iteration:  3911
 O         0.373675         0.507366         0.792356
 C        -0.765761         1.028749         0.211877
 C        -0.550968         1.472017        -1.276187
 C        -1.930152         2.251666        -0.955322
 C        -3.052134         2.720556        -1.906742
 O        -3.474900         1.248885        -2.004788
 C        -2.890390         1.140238        -0.692053
 C        -1.990586         0.094936        -0.057562
 C        -1.311510         2.523101         0.426062
 H         0.100602         0.150916         1.703869
 H         0.254939         2.124894        -1.259173
 H        -0.503146         0.747857        -2.093743
 H        -3.996653         3.299490        -1.622185
 H        -2.911767         3.109926        -2.959455
 H        -3.635525         1.454713         0.165167
 H        -2.368894        -0.495088         0.785456
 H        -1.550721        -0.650157        -0.650844
 H        -0.463047         3.271018         0.320662
 H        -2.019110         2.706325         1.226055
