19
Iteration:  1895
 O         0.178166         0.401680         0.850312
 C        -0.738892         1.067949         0.074892
 C        -0.647203         1.494863        -1.406209
 C        -1.967669         2.281287        -0.925878
 C        -3.093159         2.670914        -1.878006
 O        -3.411316         1.263227        -2.016689
 C        -2.844469         1.166842        -0.624276
 C        -1.899652         0.141948        -0.025348
 C        -1.154351         2.471014         0.489653
 H         0.790610         0.876425         1.410098
 H         0.161400         2.141052        -1.610140
 H        -0.805172         0.799823        -2.218645
 H        -3.842905         3.348027        -1.342048
 H        -2.895365         3.019957        -2.933423
 H        -3.791432         1.328037         0.099258
 H        -2.471460        -0.123917         0.910042
 H        -1.734407        -0.677121        -0.696076
 H        -0.295217         3.117419         0.323361
 H        -1.856275         2.582807         1.481450
