19
Iteration:  3139
 O         0.379367         0.593833         0.790694
 C        -0.786403         0.874839         0.157297
 C        -0.750738         1.549671        -1.270061
 C        -1.955114         2.281338        -0.841186
 C        -2.905185         2.746061        -1.930886
 O        -3.334641         1.371536        -2.116661
 C        -2.935534         1.050348        -0.628055
 C        -2.079570         0.009474         0.004876
 C        -1.320454         2.421053         0.517035
 H         1.117715         0.845718         0.239533
 H         0.080451         2.195617        -1.614149
 H        -0.973226         0.921413        -2.177346
 H        -3.799233         3.262322        -1.642148
 H        -2.395314         3.078587        -2.774506
 H        -3.859600         1.307419        -0.002620
 H        -2.509796        -0.322509         0.958493
 H        -1.788358        -0.917350        -0.557343
 H        -0.362975         3.039344         0.557341
 H        -2.042005         2.546620         1.345110
