19
Iteration:  1494charge 0 multiplicity 1
 O         0.451824         0.698253         0.841883
 C        -0.743494         0.955328         0.170007
 C        -0.692313         1.563148        -1.319009
 C        -1.979912         2.218265        -0.837079
 C        -2.955545         2.793804        -1.931592
 O        -3.401499         1.407465        -2.102576
 C        -2.942781         1.016375        -0.730480
 C        -2.058876        -0.100715        -0.030684
 C        -1.363778         2.374015         0.544693
 H         0.831803        -0.247305         0.690574
 H         0.261912         2.026450        -1.244433
 H        -0.659179         1.037823        -2.283786
 H        -3.620347         3.550470        -1.451598
 H        -2.555428         3.182785        -2.865701
 H        -3.701048         1.282774         0.081831
 H        -2.544196        -0.410733         0.799694
 H        -1.855006        -0.913391        -0.649721
 H        -0.575542         3.200745         0.555639
 H        -2.160102         2.361075         1.369694
