19
Iteration:  4913charge 0 multiplicity 1
 O         0.363667         0.403704         0.854373
 C        -0.704337         1.070030         0.134387
 C        -0.605279         1.702903        -1.253971
 C        -2.049400         2.272978        -0.840994
 C        -2.959150         2.706010        -1.999987
 O        -3.466146         1.319363        -2.092976
 C        -2.895606         1.015076        -0.652624
 C        -1.911750         0.023637        -0.145304
 C        -1.451942         2.386684         0.582880
 H         1.022473         1.071300         0.814330
 H        -0.105293         2.680284        -1.274139
 H        -0.431822         1.034467        -2.088854
 H        -3.598725         3.529741        -1.798409
 H        -2.385875         3.017646        -2.900391
 H        -3.792204         1.284072        -0.080486
 H        -2.275636        -0.332909         0.975300
 H        -1.680953        -0.929672        -0.658612
 H        -0.559740         3.029427         0.862667
 H        -2.241313         2.505117         1.294292
