19
Iteration:  3721
 O         0.312352         0.472367         0.912305
 C        -0.738556         0.985328         0.121958
 C        -0.579111         1.574762        -1.337180
 C        -1.919453         2.296151        -0.912748
 C        -2.998775         2.628865        -2.027345
 O        -3.464152         1.280530        -1.996629
 C        -2.938072         1.224933        -0.572166
 C        -1.999759         0.100775        -0.065402
 C        -1.313286         2.418668         0.439591
 H         1.169421         0.628221         0.545229
 H         0.296066         2.289395        -1.369482
 H        -0.768143         0.792673        -2.001498
 H        -3.973541         3.299883        -1.804186
 H        -2.580248         2.677619        -3.011774
 H        -3.683572         1.643331         0.032338
 H        -2.277266        -0.209166         0.994843
 H        -1.907643        -0.739314        -0.706305
 H        -0.622089         3.212489         0.733425
 H        -1.997014         2.199231         1.401418
