19
Iteration:  2760
 O         0.359611         0.425814         0.774324
 C        -0.697421         0.963781         0.112823
 C        -0.666503         1.531137        -1.325421
 C        -1.903211         2.334118        -0.897995
 C        -3.055344         2.684819        -1.847940
 O        -3.349789         1.293845        -2.022506
 C        -2.937467         1.143910        -0.635351
 C        -2.032700         0.005868        -0.023456
 C        -1.312523         2.561103         0.384904
 H         0.230484         0.458419         1.709727
 H         0.119961         2.254915        -1.465353
 H        -0.787452         0.960992        -2.201282
 H        -3.799346         3.227852        -1.329819
 H        -2.711643         3.330547        -2.671118
 H        -3.894618         1.237192         0.038635
 H        -2.431221        -0.275361         1.012215
 H        -1.907785        -0.909174        -0.733323
 H        -0.291817         3.165493         0.504162
 H        -2.028098         2.927635         1.111014
