19
Iteration:  4631charge 0 multiplicity 1
 O         0.262579         0.308770         0.820534
 C        -0.757257         1.071508         0.064601
 C        -0.528602         1.722172        -1.199260
 C        -1.948354         2.312505        -0.858381
 C        -3.080573         2.640416        -1.954649
 O        -3.283520         1.235118        -2.036708
 C        -2.869395         1.152001        -0.631264
 C        -1.919287         0.044604        -0.169154
 C        -1.502588         2.511759         0.534285
 H         1.045734         0.848425         0.820170
 H         0.362150         2.497537        -1.174373
 H        -0.577388         1.015783        -2.055649
 H        -3.919282         3.072056        -1.340946
 H        -3.249294         2.969950        -3.000360
 H        -3.775946         1.298863        -0.020772
 H        -2.182929        -0.546350         0.771035
 H        -1.945823        -0.622405        -0.968531
 H        -0.644641         3.321966         0.731876
 H        -2.115228         2.569357         1.482518
