19
Iteration:  2025
 O         0.373246         0.375871         0.886330
 C        -0.749068         1.017899         0.083409
 C        -0.607188         1.486652        -1.380154
 C        -1.878371         2.308460        -0.989751
 C        -3.081765         2.736065        -1.862408
 O        -3.438792         1.246655        -1.967598
 C        -2.867478         1.136042        -0.568902
 C        -1.963185         0.121927        -0.099538
 C        -1.311709         2.606943         0.395882
 H        -0.207878        -0.232499         1.474692
 H         0.230877         2.173954        -1.597225
 H        -0.840426         0.741681        -2.164608
 H        -3.900171         3.150397        -1.275237
 H        -2.860491         3.147692        -2.896020
 H        -3.689225         1.362856         0.117645
 H        -2.334490        -0.264726         0.907761
 H        -1.723652        -0.707071        -0.751494
 H        -0.619760         3.409934         0.520478
 H        -2.104559         2.882986         1.241816
