19
Iteration:  1291charge 0 multiplicity 1
 O         0.409233         0.389343         0.697415
 C        -0.756564         1.072990         0.124567
 C        -0.629298         1.727571        -1.316334
 C        -2.016780         2.348970        -0.785213
 C        -2.917933         2.725580        -1.979558
 O        -3.367150         1.186729        -2.077792
 C        -3.016681         1.134446        -0.650863
 C        -1.955358         0.038445        -0.066625
 C        -1.397635         2.416119         0.617486
 H         0.248484         0.373197         1.720797
 H         0.195888         2.481925        -1.295212
 H        -0.729441         1.042515        -2.198308
 H        -3.815701         3.259623        -1.683807
 H        -2.420454         2.977222        -2.930688
 H        -3.873245         1.258618         0.159922
 H        -2.178838        -0.441545         0.782890
 H        -1.815168        -0.777119        -0.803808
 H        -0.524089         3.205240         0.775813
 H        -2.087251         2.425523         1.449630
