19
Iteration:  2139charge 0 multiplicity 1
 O         0.377978         0.347806         0.816441
 C        -0.720340         0.996005         0.103210
 C        -0.655341         1.542980        -1.353151
 C        -1.976898         2.335934        -0.907074
 C        -3.089288         2.714132        -1.877845
 O        -3.368161         1.225055        -2.042392
 C        -2.913505         1.167186        -0.646444
 C        -1.976926         0.162551         0.009806
 C        -1.257757         2.566506         0.407139
 H        -0.054993        -0.170656         1.566207
 H         0.005372         2.360643        -1.513318
 H        -0.697586         0.889966        -2.203706
 H        -4.005023         3.129585        -1.286032
 H        -2.837865         3.100201        -2.837009
 H        -3.789166         1.252506        -0.002015
 H        -2.317826        -0.135801         0.987237
 H        -1.780872        -0.830656        -0.477138
 H        -0.297241         3.265382         0.402178
 H        -1.906338         2.742698         1.365959
