19
Iteration:  4684charge 0 multiplicity 1
 O         0.418389         0.534546         0.866700
 C        -0.766520         1.022582         0.078204
 C        -0.708318         1.558545        -1.307855
 C        -2.009006         2.250006        -0.752358
 C        -2.923008         2.734876        -1.922440
 O        -3.416292         1.338812        -2.146818
 C        -2.963150         1.080175        -0.711210
 C        -1.892986        -0.004877        -0.120457
 C        -1.421860         2.384889         0.655987
 H         0.935989         1.332838         0.887847
 H         0.155064         2.332310        -1.329573
 H        -0.597069         0.784134        -2.093570
 H        -3.862640         3.374318        -1.981638
 H        -2.380497         3.002406        -2.876055
 H        -3.902323         1.210136        -0.135110
 H        -2.234476        -0.428721         0.860766
 H        -1.693608        -0.703965        -0.888089
 H        -0.630528         3.204028         0.844951
 H        -2.219358         2.197105         1.377337
