19
Iteration:   839charge 0 multiplicity 1
 O         0.336981         0.493959         0.910804
 C        -0.720202         0.998354         0.080843
 C        -0.641989         1.622600        -1.359968
 C        -2.035391         2.322446        -0.799974
 C        -3.038639         2.675570        -1.940868
 O        -3.347777         1.277706        -2.021925
 C        -2.936618         1.130741        -0.683358
 C        -1.979623         0.055826        -0.156156
 C        -1.266724         2.432926         0.549395
 H         1.004975        -0.033426         0.367927
 H         0.165255         2.393689        -1.266830
 H        -0.758529         0.794691        -2.031307
 H        -3.910037         3.080439        -1.275705
 H        -3.032764         3.255254        -2.886691
 H        -3.843258         1.550150        -0.093310
 H        -2.317613        -0.383932         0.781694
 H        -1.858861        -0.862210        -0.675759
 H        -0.526738         3.145947         0.374331
 H        -1.929638         2.448825         1.430193
