19
Iteration:  3546
 O         0.378894         0.618515         0.880352
 C        -0.802941         1.003534         0.139937
 C        -0.669456         1.453054        -1.312624
 C        -1.952820         2.326028        -0.945853
 C        -2.963066         2.733885        -1.957485
 O        -3.454996         1.233909        -2.045744
 C        -2.919448         1.167170        -0.673308
 C        -1.951499         0.092198        -0.030648
 C        -1.281639         2.380931         0.520185
 H         0.602270        -0.219179         0.510545
 H         0.173522         2.113855        -1.508781
 H        -0.696116         0.790351        -2.132792
 H        -3.749368         3.264858        -1.490605
 H        -2.695052         3.276402        -2.802268
 H        -3.783769         1.481051         0.074302
 H        -2.483214        -0.305866         0.925058
 H        -1.874460        -0.837779        -0.650982
 H        -0.427562         3.093851         0.645996
 H        -1.970076         2.423068         1.416242
