19
Iteration:  4771
 O         0.215664         0.380227         0.877952
 C        -0.774013         1.049927         0.082411
 C        -0.559762         1.755494        -1.288056
 C        -2.057612         2.360174        -0.831152
 C        -3.014437         2.714816        -1.963412
 O        -3.331474         1.188896        -2.035231
 C        -2.878562         1.053861        -0.676242
 C        -1.903730         0.042159        -0.178583
 C        -1.357828         2.437017         0.580893
 H         1.104360         0.639218         0.909488
 H         0.255222         2.555120        -1.206658
 H        -0.613834         1.080393        -2.145041
 H        -4.038430         3.159652        -1.680738
 H        -2.710561         3.235511        -2.937723
 H        -3.655274         1.202194         0.238832
 H        -2.077714        -0.606970         0.784497
 H        -1.733147        -0.763810        -0.923381
 H        -0.656233         3.313006         0.679432
 H        -2.087426         2.704998         1.310156
