19
Iteration:   641charge 0 multiplicity 1
 O         0.430696         0.494046         0.802000
 C        -0.764078         1.037704         0.157388
 C        -0.701398         1.692253        -1.249319
 C        -1.989032         2.359996        -0.840131
 C        -3.018973         2.687989        -1.927089
 O        -3.364136         1.189070        -2.099404
 C        -2.931201         1.128722        -0.697426
 C        -1.992698         0.055266        -0.142183
 C        -1.331161         2.388007         0.653096
 H         0.730526        -0.207191         0.268809
 H         0.047254         2.526255        -1.340127
 H        -0.657100         1.079517        -2.193525
 H        -3.792314         3.267548        -1.518748
 H        -2.741228         3.094634        -2.891325
 H        -3.795118         1.321129        -0.111915
 H        -2.478740        -0.372195         0.666595
 H        -1.665349        -0.605470        -0.906615
 H        -0.499031         2.925485         1.003522
 H        -2.080947         2.436936         1.553918
