19
Iteration:   803
 O         0.406409         0.600931         0.715515
 C        -0.805657         0.983551         0.123007
 C        -0.737158         1.612911        -1.246811
 C        -2.012389         2.284624        -0.852060
 C        -2.869630         2.695966        -1.982067
 O        -3.410407         1.337913        -2.030250
 C        -2.914596         1.130126        -0.704489
 C        -1.904356        -0.030909         0.015297
 C        -1.406416         2.368381         0.598594
 H         0.454451        -0.376776         0.549882
 H         0.054830         2.259722        -1.399578
 H        -0.738903         1.011455        -2.105101
 H        -3.620687         3.317234        -1.575696
 H        -2.494474         3.082131        -2.945907
 H        -3.814155         1.232644         0.034809
 H        -2.353645        -0.310179         0.954806
 H        -1.582499        -0.804956        -0.726791
 H        -0.675823         3.125604         0.586512
 H        -1.974652         2.508325         1.466898
