19
Iteration:  1658charge 0 multiplicity 1
 O         0.377869         0.416940         0.846493
 C        -0.772914         0.966625         0.133452
 C        -0.678570         1.617290        -1.372587
 C        -1.967969         2.297115        -0.878637
 C        -3.011595         2.678886        -1.985636
 O        -3.399280         1.306586        -1.985514
 C        -2.857457         1.131240        -0.655229
 C        -1.974387         0.057575        -0.042649
 C        -1.309636         2.534171         0.517157
 H         0.119910        -0.396910         1.228222
 H         0.171724         2.334785        -1.572021
 H        -0.639534         0.992953        -2.349823
 H        -3.750312         3.335591        -1.455640
 H        -2.864889         2.925014        -3.049712
 H        -3.710952         1.534281         0.072976
 H        -2.421902        -0.158172         0.884697
 H        -1.647896        -0.747819        -0.657531
 H        -0.451598         3.266669         0.474754
 H        -2.199267         2.537627         1.282169
