19
Iteration:  4914
 O         0.370931         0.407679         0.856367
 C        -0.714498         1.073013         0.133594
 C        -0.604964         1.700085        -1.253222
 C        -2.049718         2.260959        -0.835255
 C        -2.957937         2.708224        -2.015709
 O        -3.471007         1.323744        -2.094681
 C        -2.891989         1.017688        -0.647701
 C        -1.912212         0.014664        -0.147639
 C        -1.446996         2.387269         0.591610
 H         1.036935         1.093854         0.811767
 H        -0.065789         2.670589        -1.273900
 H        -0.477769         1.027726        -2.104221
 H        -3.595713         3.554648        -1.784583
 H        -2.384801         3.044957        -2.893031
 H        -3.819374         1.283169        -0.096483
 H        -2.266131        -0.342358         0.972030
 H        -1.677445        -0.928549        -0.651433
 H        -0.568944         3.044411         0.849259
 H        -2.258073         2.492055         1.296316
