19
Iteration:  2616charge 0 multiplicity 1
 O         0.292491         0.409937         0.717122
 C        -0.703792         1.094803         0.098451
 C        -0.707034         1.571835        -1.351370
 C        -1.990472         2.302236        -0.906537
 C        -3.037289         2.651712        -1.929571
 O        -3.350866         1.243857        -2.052346
 C        -2.895462         1.112321        -0.605159
 C        -1.967726         0.194770         0.069351
 C        -1.226255         2.463770         0.536726
 H        -0.065537        -0.379669         1.235011
 H         0.112086         2.222990        -1.476649
 H        -0.807747         0.826239        -2.096290
 H        -3.924990         3.207407        -1.641685
 H        -2.646437         3.156116        -2.812544
 H        -3.840723         1.191846        -0.045771
 H        -2.289541        -0.074505         1.073428
 H        -1.802724        -0.598075        -0.666075
 H        -0.354688         3.165303         0.525665
 H        -1.717901         2.719805         1.541596
