19
Iteration:  3208
 O         0.183056         0.312344         0.793178
 C        -0.761645         1.049078         0.077698
 C        -0.501548         1.715658        -1.276780
 C        -1.931273         2.302703        -0.877577
 C        -3.039071         2.693893        -1.950256
 O        -3.416363         1.198995        -1.972254
 C        -2.883022         1.101624        -0.615885
 C        -1.985600         0.084581        -0.073149
 C        -1.304123         2.524775         0.487227
 H         0.970412         0.879129         1.051325
 H         0.341003         2.482525        -1.392086
 H        -0.476925         1.043376        -2.203651
 H        -3.783717         3.342731        -1.594539
 H        -2.657520         2.892048        -2.940114
 H        -3.718189         1.282734         0.052314
 H        -2.259069        -0.328718         0.860317
 H        -1.921686        -0.673254        -0.852399
 H        -0.419928         3.296286         0.574394
 H        -2.086600         2.518255         1.278110
