19
Iteration:   852charge 0 multiplicity 1
 O         0.272978         0.460178         0.895446
 C        -0.752229         1.017119         0.135809
 C        -0.672080         1.633246        -1.300506
 C        -1.939569         2.290101        -0.909451
 C        -3.095350         2.708517        -1.849104
 O        -3.396470         1.275310        -2.095054
 C        -2.874759         1.092460        -0.640603
 C        -1.930023         0.052209        -0.085729
 C        -1.283285         2.435801         0.482373
 H         0.945611         0.173432         0.280610
 H         0.139219         2.384243        -1.538092
 H        -0.651620         1.072955        -2.275662
 H        -4.009060         3.344150        -1.453819
 H        -2.680535         3.135130        -2.769421
 H        -3.670697         1.199938         0.090542
 H        -2.314345        -0.329171         0.867517
 H        -1.613182        -0.635362        -0.810448
 H        -0.356153         3.051070         0.625369
 H        -1.864246         2.674678         1.409995
