19
Iteration:  4898charge 0 multiplicity 1
 O         0.257379         0.379977         0.817072
 C        -0.746782         1.011399         0.095346
 C        -0.580017         1.769835        -1.258634
 C        -1.959065         2.272331        -0.843191
 C        -2.978570         2.669514        -1.935235
 O        -3.392261         1.234079        -2.032339
 C        -2.920064         1.115375        -0.736194
 C        -1.897566         0.084827        -0.079214
 C        -1.447203         2.444080         0.565811
 H         1.145168         0.811052         0.945083
 H         0.279782         2.436394        -1.159272
 H        -0.498542         1.212462        -2.230816
 H        -3.932031         3.156893        -1.595652
 H        -2.572734         3.045058        -2.904042
 H        -3.753793         1.162374        -0.040060
 H        -2.263228        -0.375564         0.781085
 H        -1.568072        -0.665839        -0.830365
 H        -0.851380         3.352968         0.550755
 H        -2.094213         2.219453         1.445618
