19
Iteration:  2409charge 0 multiplicity 1
 O         0.392722         0.443476         0.764716
 C        -0.725075         1.036120         0.090820
 C        -0.634679         1.481364        -1.383248
 C        -1.922132         2.248582        -0.912847
 C        -3.008757         2.690688        -1.983403
 O        -3.441335         1.250603        -1.993765
 C        -2.993886         1.215222        -0.572190
 C        -2.012687         0.154479        -0.038877
 C        -1.242912         2.501226         0.563897
 H         0.252102        -0.073204         1.530068
 H         0.116208         2.303299        -1.596145
 H        -0.595249         0.633841        -2.141130
 H        -3.810555         3.248762        -1.586680
 H        -2.960837         3.083999        -3.039093
 H        -3.746571         1.522124         0.241018
 H        -2.250379        -0.223130         0.933156
 H        -2.006507        -0.633304        -0.777573
 H        -0.433855         3.129510         0.706559
 H        -1.913371         2.565951         1.441637
