19
Iteration:  4087charge 0 multiplicity 1
 O         0.416957         0.519257         0.767511
 C        -0.730496         1.038744         0.187407
 C        -0.616933         1.627157        -1.312171
 C        -1.970731         2.170328        -0.888628
 C        -2.971300         2.718411        -1.999786
 O        -3.518208         1.382703        -2.018189
 C        -2.904385         0.992183        -0.731041
 C        -1.959659         0.006859        -0.048586
 C        -1.409337         2.445639         0.555532
 H         0.431405         0.615121         1.784657
 H         0.077109         2.469503        -1.364525
 H        -0.455011         0.826056        -2.002216
 H        -3.614109         3.442778        -1.458417
 H        -2.610518         2.947910        -3.053183
 H        -3.681262         1.194004         0.007214
 H        -2.354767        -0.481165         0.823134
 H        -1.546415        -0.710688        -0.644123
 H        -0.440694         3.034318         0.547840
 H        -2.048549         2.833000         1.431719
