19
Iteration:  4779charge 0 multiplicity 1
 O         0.237426         0.429143         0.844922
 C        -0.743967         1.052588         0.127660
 C        -0.603661         1.696226        -1.243138
 C        -2.030764         2.298633        -0.849973
 C        -3.021126         2.694360        -1.952681
 O        -3.329190         1.179844        -2.020762
 C        -2.875071         1.130683        -0.689489
 C        -1.938747         0.032827        -0.218175
 C        -1.382873         2.435230         0.600543
 H         1.011514         0.964796         0.692991
 H         0.063750         2.523747        -1.245489
 H        -0.331249         1.049277        -2.077988
 H        -3.837229         3.225013        -1.560901
 H        -2.526712         3.162894        -2.800435
 H        -3.711309         1.325374         0.041150
 H        -2.242228        -0.436966         0.745395
 H        -1.760439        -0.692614        -1.121554
 H        -0.534684         3.084500         0.654392
 H        -2.127226         2.549215         1.413398
