19
Iteration:  1638
 O         0.421086         0.562105         0.759918
 C        -0.735837         1.018581         0.127121
 C        -0.673863         1.460314        -1.276954
 C        -1.983438         2.298757        -0.906899
 C        -2.972260         2.773659        -1.870458
 O        -3.347806         1.272868        -2.087499
 C        -2.937116         1.148388        -0.642332
 C        -2.080671         0.032517        -0.021517
 C        -1.328779         2.489013         0.525637
 H         0.347205        -0.200434         1.410405
 H         0.285106         1.954168        -1.535179
 H        -0.808853         0.703097        -2.082808
 H        -3.904264         3.167082        -1.405567
 H        -2.642419         3.236717        -2.813229
 H        -3.806247         1.345223        -0.092577
 H        -2.518068        -0.380036         0.833589
 H        -1.845969        -0.673325        -0.812715
 H        -0.293983         2.987920         0.397425
 H        -2.048761         2.449480         1.345445
