19
Iteration:   738charge 0 multiplicity 1
 O         0.297062         0.464433         0.772772
 C        -0.751192         1.007302         0.073996
 C        -0.618055         1.658763        -1.298277
 C        -1.901478         2.423417        -0.854017
 C        -3.061525         2.583995        -1.842271
 O        -3.390945         1.280525        -2.009171
 C        -2.792879         1.136805        -0.623493
 C        -1.981060        -0.021998        -0.186145
 C        -1.385104         2.421194         0.511653
 H         0.159689         0.683517         1.655586
 H         0.177660         2.326406        -1.433343
 H        -0.555443         0.969279        -2.084861
 H        -3.957522         3.237093        -1.485911
 H        -2.674889         3.131309        -2.792468
 H        -3.695025         1.425592        -0.079132
 H        -2.320767        -0.410295         0.722211
 H        -1.765727        -0.787211        -0.914672
 H        -0.568453         2.992143         0.627264
 H        -2.011863         2.590915         1.407716
