19
Iteration:  2543
 O         0.440243         0.473626         0.847872
 C        -0.728855         0.927108         0.103167
 C        -0.695953         1.499462        -1.401233
 C        -1.942067         2.276367        -0.881036
 C        -3.001442         2.707137        -2.028103
 O        -3.639487         1.423532        -2.008478
 C        -2.807114         1.114754        -0.620411
 C        -1.940012        -0.001620        -0.019888
 C        -1.312032         2.465359         0.551690
 H         0.434815         0.879162         1.716456
 H         0.288335         2.142701        -1.425925
 H        -0.849788         0.789659        -2.275374
 H        -3.707664         3.559447        -1.787001
 H        -2.503123         2.801867        -3.080880
 H        -3.659705         1.472692         0.031063
 H        -2.345318        -0.282183         0.917357
 H        -1.549180        -0.843280        -0.671479
 H        -0.409817         3.129813         0.637480
 H        -1.998937         2.725343         1.278271
