19
Iteration:  4271
 O         0.233195         0.303248         0.785449
 C        -0.708557         1.044823         0.129040
 C        -0.618825         1.772020        -1.223206
 C        -1.948822         2.370920        -0.958753
 C        -3.028816         2.645007        -1.971141
 O        -3.449997         1.218699        -2.031496
 C        -2.844948         1.126146        -0.661064
 C        -1.917249         0.052211        -0.068834
 C        -1.390807         2.463515         0.536492
 H         1.024631         0.838010         1.087704
 H         0.224130         2.562741        -1.200395
 H        -0.438027         1.199954        -2.158436
 H        -3.821445         3.336378        -1.566812
 H        -2.541129         2.847964        -2.948648
 H        -3.694438         1.320177         0.123044
 H        -2.092043        -0.340385         1.005537
 H        -1.558632        -0.860725        -0.635544
 H        -0.591773         3.158443         0.752889
 H        -2.168927         2.476413         1.303224
