19
Iteration:  2154
 O         0.333576         0.355916         0.851369
 C        -0.655724         1.016973         0.075723
 C        -0.671142         1.656103        -1.424470
 C        -1.920651         2.332880        -0.882331
 C        -3.111879         2.701151        -2.017170
 O        -3.423204         1.257157        -1.939230
 C        -2.844639         1.135499        -0.616027
 C        -1.975972         0.032036        -0.006719
 C        -1.275215         2.523836         0.502256
 H        -0.143856         0.007379         1.572517
 H         0.363427         2.079128        -1.654068
 H        -0.896721         0.917972        -2.268535
 H        -3.923219         3.371134        -1.722699
 H        -2.934749         3.144467        -3.048597
 H        -3.492959         1.566452         0.061134
 H        -2.474120        -0.207837         0.967407
 H        -1.788612        -0.854007        -0.617176
 H        -0.485028         3.355973         0.443283
 H        -1.933871         2.619401         1.320948
