19
Iteration:  4767charge 0 multiplicity 1
 O         0.196778         0.344236         0.898035
 C        -0.760381         1.040800         0.066776
 C        -0.560826         1.790337        -1.305066
 C        -2.014398         2.376632        -0.818780
 C        -3.040313         2.716673        -1.962681
 O        -3.341610         1.209875        -2.059559
 C        -2.887156         1.028090        -0.637350
 C        -1.874171         0.040269        -0.140265
 C        -1.373134         2.477710         0.555037
 H         1.185700         0.601813         0.945227
 H         0.242383         2.448628        -1.306263
 H        -0.694982         1.184848        -2.202425
 H        -3.970020         3.109179        -1.744654
 H        -2.785254         3.093688        -2.933316
 H        -3.739240         1.159826         0.072308
 H        -2.131733        -0.546136         0.721583
 H        -1.523910        -0.794996        -0.906781
 H        -0.675312         3.262939         0.628870
 H        -2.083810         2.557853         1.442627
