19
Iteration:  3839charge 0 multiplicity 1
 O         0.428700         0.474878         0.774088
 C        -0.768582         1.020144         0.194431
 C        -0.669294         1.583136        -1.312486
 C        -1.962170         2.262540        -0.876935
 C        -2.934470         2.592585        -1.985054
 O        -3.421057         1.249437        -2.052968
 C        -2.947884         1.122316        -0.627590
 C        -2.013443         0.150776         0.020076
 C        -1.344794         2.564134         0.477704
 H         0.358619        -0.515508         0.865200
 H         0.186053         2.410727        -1.261986
 H        -0.678337         0.833910        -2.140521
 H        -3.710593         3.327113        -1.590350
 H        -2.541700         3.116279        -2.876005
 H        -3.825152         1.364262         0.102505
 H        -2.549856        -0.334053         0.908992
 H        -1.714624        -0.717955        -0.742476
 H        -0.576043         3.309578         0.372686
 H        -1.992675         2.665459         1.363393
