19
Iteration:   735
 O         0.294335         0.452692         0.777187
 C        -0.739405         0.988629         0.087739
 C        -0.631223         1.668673        -1.299359
 C        -1.887182         2.410735        -0.850048
 C        -3.052843         2.602244        -1.833554
 O        -3.387438         1.276145        -2.010970
 C        -2.802053         1.125916        -0.630387
 C        -1.976788        -0.012086        -0.186840
 C        -1.420023         2.429984         0.494414
 H         0.218009         0.766983         1.750581
 H         0.155205         2.358537        -1.442411
 H        -0.599037         1.028527        -2.174944
 H        -3.848766         3.184624        -1.439885
 H        -2.795382         3.065232        -2.782682
 H        -3.711596         1.531082        -0.115942
 H        -2.341569        -0.408692         0.789791
 H        -1.705966        -0.782607        -0.986746
 H        -0.500177         3.067504         0.576919
 H        -1.878275         2.548436         1.400004
