19
Iteration:  4885
 O         0.216634         0.339287         0.810331
 C        -0.751463         1.099563         0.134245
 C        -0.567960         1.710819        -1.275367
 C        -1.976181         2.359878        -0.871804
 C        -3.064676         2.659822        -1.960239
 O        -3.314931         1.177886        -2.089224
 C        -2.835676         1.082690        -0.615174
 C        -1.946267         0.030017        -0.157792
 C        -1.403598         2.480934         0.622654
 H         0.924556         0.970508         0.772948
 H         0.210855         2.517175        -1.336594
 H        -0.587776         1.084132        -2.223065
 H        -3.856110         3.275365        -1.355312
 H        -2.877954         3.191224        -2.898385
 H        -3.606156         1.524106         0.048134
 H        -2.197830        -0.416748         0.693680
 H        -1.637027        -0.700957        -0.880456
 H        -0.650851         3.195783         0.924146
 H        -2.214227         2.580910         1.418884
