19
Iteration:  2936charge 0 multiplicity 1
 O         0.468773         0.503451         0.688347
 C        -0.763328         1.001768         0.147120
 C        -0.614272         1.579092        -1.274419
 C        -1.958213         2.304371        -0.905992
 C        -2.886657         2.689859        -2.030873
 O        -3.490299         1.285584        -1.992881
 C        -2.963244         1.179601        -0.584902
 C        -2.016936         0.063220        -0.070048
 C        -1.408379         2.408400         0.578601
 H         0.299076         0.029923         1.508688
 H         0.082455         2.391197        -1.306949
 H        -0.601958         0.856070        -2.052447
 H        -3.724977         3.414994        -1.841310
 H        -2.320132         2.862644        -3.012802
 H        -3.785576         1.270115         0.174559
 H        -2.426184        -0.370488         0.993449
 H        -1.757840        -0.743749        -0.892031
 H        -0.609914         3.241713         0.740700
 H        -2.089054         2.306092         1.462134
