19
Iteration:   858charge 0 multiplicity 1
 O         0.258544         0.451698         0.887956
 C        -0.778320         1.013099         0.114598
 C        -0.598314         1.606642        -1.375161
 C        -1.983904         2.312097        -0.946175
 C        -3.062591         2.760509        -1.841428
 O        -3.439949         1.272375        -2.059192
 C        -2.833218         1.053743        -0.662676
 C        -1.901970         0.028119        -0.006672
 C        -1.295176         2.495876         0.548767
 H         0.997976         0.240423         0.187354
 H         0.117041         2.418681        -1.345591
 H        -0.745619         0.943925        -2.221224
 H        -3.822618         3.339067        -1.488494
 H        -2.599399         3.138344        -2.772284
 H        -3.894147         1.198654        -0.198929
 H        -2.345382        -0.606513         0.792601
 H        -1.519341        -0.668741        -0.874082
 H        -0.439986         3.204163         0.558178
 H        -2.022006         2.560060         1.357021
