19
Iteration:  3790charge 0 multiplicity 1
 O         0.365389         0.529562         0.965116
 C        -0.701838         1.018876         0.121818
 C        -0.734208         1.561043        -1.370295
 C        -1.954184         2.316428        -0.921019
 C        -3.002077         2.703312        -1.953719
 O        -3.414119         1.223831        -2.050610
 C        -2.922909         1.144837        -0.664460
 C        -1.989619         0.088606        -0.016591
 C        -1.259205         2.437555         0.449923
 H         0.322543        -0.454443         0.884582
 H         0.006826         2.268553        -1.585756
 H        -0.998851         0.865144        -2.185159
 H        -3.755864         3.338753        -1.515573
 H        -2.553354         3.108723        -2.881980
 H        -3.699101         1.445991        -0.014471
 H        -2.300796        -0.351299         1.019633
 H        -1.762043        -0.711979        -0.749576
 H        -0.446996         3.215193         0.496150
 H        -1.874577         2.571184         1.377256
