19
Iteration:   151charge 0 multiplicity 1
 O         0.380988         0.375194         0.784290
 C        -0.698664         0.995666         0.094007
 C        -0.684923         1.834113        -1.290832
 C        -2.005123         2.371422        -0.758076
 C        -3.149343         2.662318        -1.941194
 O        -3.242363         1.241951        -2.137340
 C        -2.869260         1.118569        -0.711958
 C        -1.996949         0.066542        -0.199547
 C        -1.360274         2.309589         0.722844
 H         0.853193         1.212087         1.115353
 H        -0.013047         2.663095        -1.355647
 H        -0.849243         1.212415        -2.118188
 H        -4.151323         3.015095        -1.539907
 H        -2.893435         3.166034        -2.829423
 H        -3.739858         1.294011        -0.024191
 H        -2.340783        -0.308478         0.801191
 H        -1.806079        -0.788479        -0.891206
 H        -0.637139         2.942903         1.176893
 H        -2.069313         2.006495         1.544820
