19
Iteration:  3906charge 0 multiplicity 1
 O         0.393210         0.552188         0.799534
 C        -0.744074         1.043719         0.208200
 C        -0.525103         1.479256        -1.298619
 C        -1.957337         2.271336        -0.978772
 C        -2.989022         2.727595        -1.927887
 O        -3.500483         1.226994        -1.980661
 C        -2.899023         1.141652        -0.665712
 C        -2.077697         0.041837        -0.079910
 C        -1.314821         2.504855         0.447966
 H         0.138298         0.082761         1.575423
 H         0.401626         2.191243        -1.318748
 H        -0.520936         0.746756        -2.131086
 H        -3.927205         3.236694        -1.595282
 H        -2.729599         3.112894        -2.889402
 H        -3.671123         1.404757         0.100366
 H        -2.407111        -0.347760         0.904307
 H        -1.602949        -0.705405        -0.815107
 H        -0.536518         3.238833         0.462319
 H        -1.956212         2.645522         1.360015
