19
Iteration:  4740charge 0 multiplicity 1
 O         0.281506         0.353408         0.879146
 C        -0.741951         1.088030         0.146115
 C        -0.648355         1.708126        -1.293217
 C        -1.998809         2.268871        -0.865998
 C        -2.991394         2.764879        -1.907980
 O        -3.403989         1.229048        -2.106010
 C        -2.852191         1.038956        -0.710960
 C        -1.877567         0.094388        -0.143822
 C        -1.386141         2.408811         0.604758
 H         1.125937         0.821398         1.184587
 H         0.125308         2.555169        -1.542792
 H        -0.589622         0.971646        -2.121252
 H        -4.023313         3.067558        -1.524330
 H        -2.774807         3.185148        -2.927970
 H        -3.742626         1.299917        -0.121215
 H        -2.384945        -0.289644         0.785190
 H        -1.536453        -0.680308        -0.756389
 H        -0.696707         3.335656         0.586948
 H        -2.200173         2.534315         1.342850
