19
Iteration:  2258charge 0 multiplicity 1
 O         0.393390         0.387423         0.797572
 C        -0.747246         0.963757         0.072911
 C        -0.722301         1.574715        -1.368813
 C        -1.944021         2.366998        -0.850537
 C        -3.073668         2.717574        -1.939822
 O        -3.319302         1.198282        -1.971412
 C        -2.903450         1.176524        -0.657360
 C        -2.049917         0.077777        -0.019934
 C        -1.258480         2.557265         0.438652
 H         0.212826         0.181389         1.705987
 H         0.156659         2.254457        -1.411122
 H        -0.949933         1.033100        -2.302519
 H        -3.757195         3.193071        -1.251116
 H        -2.763327         3.097349        -2.891541
 H        -3.807766         1.434889        -0.016625
 H        -2.381949        -0.225551         0.980525
 H        -1.959573        -0.896212        -0.649637
 H        -0.381880         3.157632         0.326563
 H        -1.770429         2.773811         1.406140
