19
Iteration:  4984charge 0 multiplicity 1
 O         0.265135         0.346124         0.842962
 C        -0.751077         1.031892         0.178599
 C        -0.634208         1.731898        -1.283941
 C        -2.012902         2.301537        -0.904023
 C        -3.060131         2.707040        -1.918544
 O        -3.331730         1.245837        -2.126292
 C        -2.870292         1.070587        -0.665328
 C        -1.907201         0.117948        -0.117863
 C        -1.350610         2.417027         0.574120
 H         1.019700         0.916289         0.864213
 H         0.215190         2.437533        -1.294945
 H        -0.622430         1.006415        -2.139747
 H        -4.062994         3.041033        -1.574876
 H        -2.809992         3.285482        -2.801339
 H        -3.676314         1.148901         0.094452
 H        -2.256412        -0.144211         0.795341
 H        -1.653652        -0.813806        -0.641111
 H        -0.587083         3.175343         0.659320
 H        -2.077967         2.527080         1.434022
