19
Iteration:  3349charge 0 multiplicity 1
 O         0.259041         0.199571         0.854776
 C        -0.703432         1.021701         0.072021
 C        -0.639009         1.727398        -1.299999
 C        -2.025931         2.404519        -0.854177
 C        -3.012307         2.669527        -1.966844
 O        -3.345733         1.177985        -2.072716
 C        -2.936926         1.139852        -0.643358
 C        -1.854635         0.110074        -0.053525
 C        -1.414999         2.601790         0.582028
 H         1.250661         0.318733         0.675377
 H         0.115652         2.515759        -1.394823
 H        -0.837318         1.272690        -2.282815
 H        -4.044479         3.106976        -1.447736
 H        -2.597067         3.068535        -2.879868
 H        -3.931821         1.155257        -0.135197
 H        -2.002469        -0.221920         0.969822
 H        -1.569922        -0.702018        -0.790314
 H        -0.529453         3.311204         0.504903
 H        -2.036970         2.619892         1.458226
