19
Iteration:   684charge 0 multiplicity 1
 O         0.390386         0.489063         0.831204
 C        -0.762283         0.985220         0.143740
 C        -0.723036         1.671100        -1.326312
 C        -1.974749         2.240106        -0.835043
 C        -2.896828         2.762833        -1.946445
 O        -3.476610         1.340236        -2.045715
 C        -2.918793         1.015041        -0.720428
 C        -1.909881        -0.015826        -0.086135
 C        -1.398828         2.394026         0.605878
 H         1.068546         1.069618         0.463264
 H         0.157036         2.335545        -1.330443
 H        -0.756329         1.042783        -2.235309
 H        -3.743078         3.407162        -1.532748
 H        -2.414413         3.203877        -2.882677
 H        -3.797077         1.140972        -0.106432
 H        -2.318504        -0.335541         0.822364
 H        -1.515393        -0.850708        -0.637049
 H        -0.680677         3.168185         0.643799
 H        -2.224589         2.508644         1.429002
