19
Iteration:  2546
 O         0.435340         0.492912         0.811871
 C        -0.740635         0.958398         0.108950
 C        -0.688521         1.503868        -1.384527
 C        -1.931973         2.271893        -0.883987
 C        -2.965761         2.719297        -2.054095
 O        -3.649080         1.423600        -1.993042
 C        -2.819777         1.081821        -0.612475
 C        -1.935674        -0.001318        -0.021155
 C        -1.309236         2.422623         0.559535
 H         0.397446         0.931118         1.732392
 H         0.232965         2.111733        -1.405557
 H        -0.776955         0.731832        -2.174284
 H        -3.634262         3.550437        -1.922881
 H        -2.591144         2.889975        -3.037967
 H        -3.651888         1.490189         0.044653
 H        -2.391702        -0.265203         1.021501
 H        -1.637975        -0.806192        -0.695969
 H        -0.449178         3.096273         0.662624
 H        -1.995362         2.718993         1.345811
