19
Iteration:  2121
 O         0.349568         0.516486         0.631466
 C        -0.750664         1.114846         0.169520
 C        -0.637347         1.490071        -1.308566
 C        -1.962490         2.205321        -0.865785
 C        -3.011666         2.672252        -1.915881
 O        -3.375109         1.292238        -2.110765
 C        -2.968637         1.110742        -0.588157
 C        -2.053872         0.099613         0.082541
 C        -1.228454         2.482552         0.502671
 H         0.070721        -0.084073         1.378772
 H         0.322124         2.086184        -1.402793
 H        -0.757825         0.631047        -2.022108
 H        -3.711796         3.163206        -1.286183
 H        -2.660563         3.228798        -2.809805
 H        -3.784434         1.562346        -0.043565
 H        -2.365683        -0.349343         1.038891
 H        -1.737269        -0.685608        -0.633709
 H        -0.445139         3.254715         0.411969
 H        -1.775481         2.745409         1.332544
