19
Iteration:  2015charge 0 multiplicity 1
 O         0.270206         0.465690         0.840700
 C        -0.680292         1.065247         0.113766
 C        -0.607268         1.490283        -1.382684
 C        -1.892836         2.303515        -0.917351
 C        -3.048311         2.663029        -1.825539
 O        -3.447011         1.254513        -1.991803
 C        -2.919411         1.169273        -0.668654
 C        -1.937498         0.120821        -0.040975
 C        -1.288789         2.521160         0.406837
 H        -0.074819        -0.367641         1.264635
 H         0.163402         2.119028        -1.778243
 H        -0.688482         0.639192        -2.064457
 H        -3.725551         3.318918        -1.246695
 H        -2.940139         3.203041        -2.808245
 H        -3.622133         1.512740         0.029096
 H        -2.272422        -0.323636         0.957540
 H        -1.776165        -0.748758        -0.640330
 H        -0.425550         3.121231         0.283461
 H        -1.927071         2.601767         1.416200
