19
Iteration:  3431
 O         0.341452         0.472771         0.866734
 C        -0.728022         1.026663         0.139451
 C        -0.684041         1.521157        -1.307823
 C        -2.001826         2.249839        -0.891608
 C        -2.954556         2.755321        -1.917890
 O        -3.526216         1.338776        -2.091976
 C        -2.889745         1.076606        -0.714936
 C        -1.842126         0.024143        -0.073277
 C        -1.325084         2.454760         0.550507
 H         0.496378         1.026452         1.608039
 H         0.161100         2.166190        -1.658576
 H        -0.874873         0.753223        -2.122659
 H        -3.716546         3.459914        -1.657312
 H        -2.495057         3.192283        -2.859315
 H        -3.815782         1.078823        -0.039469
 H        -2.210901        -0.423774         0.815091
 H        -1.547574        -0.793865        -0.704557
 H        -0.511643         3.208603         0.621432
 H        -2.040049         2.637290         1.407134
