19
Iteration:  1330
 O         0.357153         0.461071         0.712451
 C        -0.779731         1.019674         0.183849
 C        -0.628005         1.673996        -1.233426
 C        -1.934295         2.395998        -0.909051
 C        -3.059516         2.739076        -1.949928
 O        -3.384528         1.225626        -2.089812
 C        -2.860615         1.054679        -0.640030
 C        -1.941216         0.013892        -0.099407
 C        -1.382443         2.488497         0.605477
 H         0.177178        -0.241157         1.315883
 H         0.300576         2.197180        -1.362887
 H        -0.679416         1.062308        -2.120531
 H        -3.948076         3.352451        -1.663902
 H        -2.784063         3.157582        -2.934434
 H        -3.666229         1.364129        -0.089658
 H        -2.272932        -0.442158         1.010021
 H        -1.567661        -0.884569        -0.668455
 H        -0.507600         2.971821         0.886048
 H        -2.193433         2.444750         1.390172
