19
Iteration:  4872charge 0 multiplicity 1
 O         0.254581         0.385241         0.823682
 C        -0.800770         1.001156         0.156312
 C        -0.661070         1.693314        -1.271722
 C        -1.935856         2.375944        -0.889460
 C        -3.102506         2.640158        -1.906125
 O        -3.256970         1.230596        -2.047435
 C        -2.871659         1.164866        -0.704887
 C        -1.898991         0.058419        -0.156920
 C        -1.390421         2.493571         0.594853
 H         1.179638         0.763918         0.990109
 H         0.160463         2.487561        -1.405931
 H        -0.535691         0.817977        -1.954442
 H        -4.161813         2.994058        -1.579105
 H        -2.843397         3.068321        -2.881530
 H        -3.835259         1.067734        -0.066114
 H        -2.342678        -0.590481         0.647515
 H        -1.651331        -0.615543        -0.933313
 H        -0.472235         3.093621         0.720227
 H        -2.136878         2.524052         1.400408
