19
Iteration:  2231
 O         0.390081         0.538276         0.707683
 C        -0.742910         1.071710         0.102553
 C        -0.616366         1.436713        -1.346246
 C        -1.983860         2.237657        -0.866176
 C        -2.943622         2.726688        -1.981612
 O        -3.525604         1.337967        -2.018302
 C        -2.940811         1.151075        -0.620652
 C        -1.966378         0.084455         0.034070
 C        -1.332614         2.369128         0.547572
 H         0.363659         0.412047         1.660279
 H         0.158364         2.223623        -1.613644
 H        -0.607705         0.665517        -2.182926
 H        -3.589637         3.557334        -1.609316
 H        -2.323548         2.983818        -2.914767
 H        -3.759875         1.438016         0.005152
 H        -2.234658        -0.329002         1.046494
 H        -1.746636        -0.741357        -0.567836
 H        -0.419757         3.089003         0.502995
 H        -1.971331         2.349351         1.424712
