19
Iteration:  2225
 O         0.452193         0.553153         0.698037
 C        -0.786066         0.984720         0.137465
 C        -0.630216         1.453168        -1.283493
 C        -1.993064         2.244140        -0.928951
 C        -2.899181         2.737405        -2.008533
 O        -3.569354         1.363704        -1.970397
 C        -2.926033         1.137593        -0.677164
 C        -1.945872         0.062690         0.022570
 C        -1.343980         2.411232         0.564814
 H         0.385361         0.443045         1.636221
 H         0.227982         2.054443        -1.584261
 H        -0.763384         0.713132        -2.090800
 H        -3.511631         3.619284        -1.772593
 H        -2.428595         3.019647        -2.938619
 H        -3.824464         1.313030         0.011946
 H        -2.274290        -0.256647         1.023823
 H        -1.697916        -0.851333        -0.609953
 H        -0.608847         3.165627         0.483080
 H        -1.952413         2.337271         1.495042
