19
Iteration:  1928
 O         0.366909         0.299684         0.749165
 C        -0.701686         1.002128         0.163029
 C        -0.707377         1.597660        -1.351819
 C        -1.987727         2.319706        -0.926978
 C        -2.967865         2.673280        -2.005419
 O        -3.411232         1.255021        -1.961837
 C        -2.876747         1.185593        -0.593759
 C        -2.043364         0.117987         0.048623
 C        -1.312633         2.506362         0.451833
 H         1.009003         0.998044         1.107024
 H         0.078932         2.306542        -1.342226
 H        -0.720103         1.100510        -2.309081
 H        -3.777231         3.433891        -1.827475
 H        -2.633372         2.759376        -3.076281
 H        -3.795202         1.421597         0.061695
 H        -2.558567        -0.202845         1.001847
 H        -1.939447        -0.842274        -0.397377
 H        -0.436939         3.156114         0.491541
 H        -1.961721         2.745092         1.487691
