19
Iteration:   896charge 0 multiplicity 1
 O         0.436490         0.495357         0.851544
 C        -0.767000         0.962245         0.161545
 C        -0.627390         1.598558        -1.337201
 C        -1.971622         2.285825        -0.834023
 C        -2.939273         2.716485        -2.009943
 O        -3.530400         1.296915        -2.007326
 C        -2.934675         1.143286        -0.667553
 C        -2.005390         0.047647        -0.077832
 C        -1.368395         2.355104         0.543375
 H         1.140835         1.072382         0.555076
 H         0.230080         2.285918        -1.305685
 H        -0.368951         1.008783        -2.205624
 H        -3.709190         3.496277        -1.690636
 H        -2.521187         2.958521        -2.978064
 H        -3.680675         1.337478         0.115052
 H        -2.334014        -0.577621         0.725919
 H        -1.803204        -0.511057        -0.935980
 H        -0.633155         3.102298         0.733443
 H        -2.073287         2.430252         1.365909
