19
Iteration:  2566
 O         0.444092         0.591920         0.670182
 C        -0.755630         0.981508         0.112192
 C        -0.583587         1.491198        -1.272737
 C        -1.965662         2.169976        -0.903102
 C        -2.821257         2.655760        -1.988863
 O        -3.562597         1.365753        -1.901864
 C        -3.037056         1.206887        -0.623086
 C        -2.043057         0.041523        -0.058735
 C        -1.355266         2.394560         0.497814
 H         0.551113         0.618012         1.624792
 H         0.219686         2.366371        -1.326229
 H        -0.587306         0.800282        -2.172047
 H        -3.450812         3.542564        -1.706673
 H        -2.278408         2.683108        -2.993498
 H        -3.916056         1.486960         0.112179
 H        -2.386023        -0.315302         0.938183
 H        -1.557011        -0.734476        -0.705035
 H        -0.593212         3.188131         0.689058
 H        -1.986711         2.340905         1.300828
