19
Iteration:  2423charge 0 multiplicity 1
 O         0.500658         0.494424         0.715352
 C        -0.730095         0.945449         0.147854
 C        -0.711152         1.513453        -1.287522
 C        -1.965475         2.352330        -0.892082
 C        -2.975793         2.688516        -2.021444
 O        -3.446152         1.299217        -1.973604
 C        -2.924618         1.209965        -0.547914
 C        -2.068245         0.044658         0.019227
 C        -1.319448         2.474103         0.445327
 H         0.106896        -0.224993         1.318210
 H         0.265812         2.106973        -1.432490
 H        -0.937898         0.843149        -2.149764
 H        -3.668272         3.419819        -1.729453
 H        -2.389048         2.853458        -2.913047
 H        -3.808932         1.491196         0.011836
 H        -2.484252        -0.431898         0.920251
 H        -1.790610        -0.755214        -0.775930
 H        -0.471732         3.210140         0.491916
 H        -1.964427         2.646996         1.250633
