19
Iteration:  2997charge 0 multiplicity 1
 O         0.388913         0.461775         0.722680
 C        -0.782400         1.041400         0.145801
 C        -0.678986         1.504590        -1.267152
 C        -1.940302         2.318030        -0.865541
 C        -3.008850         2.692236        -1.891157
 O        -3.340641         1.279946        -2.099265
 C        -2.912365         1.150738        -0.618902
 C        -2.006326         0.095128        -0.065410
 C        -1.326430         2.513101         0.540846
 H         0.113667        -0.303629         1.293442
 H         0.122515         2.237425        -1.594944
 H        -0.584828         0.671025        -2.044642
 H        -3.905396         3.152881        -1.416844
 H        -2.706019         3.159721        -2.799892
 H        -3.789884         1.353552        -0.066857
 H        -2.357519        -0.311119         0.820239
 H        -1.874002        -0.754114        -0.670877
 H        -0.502451         3.258225         0.539796
 H        -2.026324         2.486103         1.440277
