19
Iteration:   572charge 0 multiplicity 1
 O         0.487538         0.575626         0.732175
 C        -0.794233         0.928560         0.164105
 C        -0.634452         1.599844        -1.174679
 C        -1.929750         2.336517        -0.838313
 C        -3.065447         2.745576        -1.936787
 O        -3.418512         1.342082        -2.056050
 C        -2.942003         1.074669        -0.721989
 C        -1.947012        -0.031581        -0.220904
 C        -1.403402         2.341472         0.580577
 H         0.374187         0.847651         1.651047
 H         0.195053         2.296078        -1.076268
 H        -0.553502         0.888452        -2.017724
 H        -3.936915         3.354710        -1.515987
 H        -2.813323         3.197532        -2.989390
 H        -3.750069         1.116440         0.039286
 H        -2.302731        -0.471928         0.745367
 H        -1.669473        -0.596891        -1.128801
 H        -0.471656         2.894659         1.096156
 H        -2.188633         2.444974         1.366393
