19
Iteration:  4029
 O         0.322855         0.488878         0.914000
 C        -0.708558         1.011552         0.089215
 C        -0.661430         1.680912        -1.323866
 C        -1.981127         2.327279        -0.851663
 C        -3.031321         2.672689        -1.970738
 O        -3.434848         1.214826        -2.037358
 C        -2.875330         1.083722        -0.671547
 C        -1.991014         0.087731        -0.028512
 C        -1.293998         2.455096         0.491203
 H         0.717582        -0.184992         0.367646
 H         0.175904         2.401095        -1.320405
 H        -0.580233         1.034139        -2.265115
 H        -3.820367         3.298369        -1.647373
 H        -2.693911         3.075139        -2.891446
 H        -3.659339         1.295940        -0.025492
 H        -2.416868        -0.243080         0.924342
 H        -1.747169        -0.838898        -0.648106
 H        -0.365371         3.106971         0.531025
 H        -1.921598         2.564069         1.367257
