19
Iteration:  3654
 O         0.384105         0.504130         0.756817
 C        -0.746335         1.019087         0.082017
 C        -0.682906         1.503678        -1.344344
 C        -1.937287         2.284689        -0.906754
 C        -2.945370         2.701128        -2.032340
 O        -3.380966         1.250768        -2.041616
 C        -3.041559         1.138257        -0.672919
 C        -2.090797         0.082290         0.078962
 C        -1.214832         2.434212         0.595512
 H         0.792184         1.156577         1.367398
 H         0.251932         2.155915        -1.472389
 H        -0.905477         0.788642        -2.128718
 H        -3.701968         3.428884        -1.505582
 H        -2.530553         3.028505        -3.005104
 H        -3.811431         1.463399        -0.033243
 H        -2.579067        -0.015123         1.089516
 H        -1.809389        -0.947662        -0.233299
 H        -0.375266         3.156987         0.775275
 H        -2.083946         2.334596         1.314129
