19
Iteration:  3224charge 0 multiplicity 1
 O         0.134708         0.300312         0.879415
 C        -0.689788         1.071603         0.077510
 C        -0.542786         1.630284        -1.349291
 C        -1.919390         2.349578        -0.911000
 C        -3.024870         2.569388        -1.931193
 O        -3.408345         1.207167        -1.952797
 C        -2.937659         1.216392        -0.566157
 C        -1.911962         0.153112        -0.214587
 C        -1.344226         2.484230         0.499820
 H         1.001815         0.825315         1.056274
 H         0.195670         2.398707        -1.317366
 H        -0.379775         0.991601        -2.173234
 H        -3.923404         3.080718        -1.313694
 H        -2.838446         3.091322        -2.959732
 H        -3.717015         1.587493         0.126704
 H        -2.109063        -0.586157         0.669130
 H        -1.556300        -0.498003        -1.037981
 H        -0.620363         3.219926         0.637074
 H        -1.849384         2.658359         1.448908
