19
Iteration:   708charge 0 multiplicity 1
 O         0.355256         0.404171         0.829745
 C        -0.678643         1.078489         0.146297
 C        -0.617242         1.590276        -1.322440
 C        -2.024764         2.285547        -0.851806
 C        -3.071299         2.777326        -1.908909
 O        -3.477353         1.311694        -2.106625
 C        -2.918200         1.041559        -0.648278
 C        -1.903473         0.030367        -0.126878
 C        -1.323103         2.402803         0.545487
 H         0.792272         1.088361         1.473632
 H         0.077997         2.530902        -1.468395
 H        -0.320025         0.758181        -2.030946
 H        -3.994822         3.334197        -1.641511
 H        -2.523990         3.250655        -2.741525
 H        -3.843979         1.166824        -0.129897
 H        -2.237097        -0.414541         0.807633
 H        -1.538141        -0.689156        -0.819624
 H        -0.540577         3.215824         0.738868
 H        -2.094773         2.416386         1.456761
