19
Iteration:  3953charge 0 multiplicity 1
 O         0.319485         0.452848         0.829815
 C        -0.717908         1.017659         0.109390
 C        -0.679115         1.598664        -1.379492
 C        -2.016008         2.249598        -0.887954
 C        -3.002301         2.670068        -1.927377
 O        -3.365380         1.205378        -1.994670
 C        -2.918993         1.155064        -0.689657
 C        -1.987191         0.135705        -0.003059
 C        -1.262921         2.416814         0.463308
 H         0.385321         1.072688         1.592372
 H         0.092322         2.309154        -1.408521
 H        -0.729117         0.921036        -2.267395
 H        -3.817426         3.443975        -1.558350
 H        -2.494159         3.037037        -2.841302
 H        -3.909387         1.372596        -0.072922
 H        -2.308496        -0.102539         0.966952
 H        -1.810737        -0.638339        -0.662416
 H        -0.396529         3.173389         0.527092
 H        -1.875958         2.540203         1.358629
