19
Iteration:   733
 O         0.296878         0.446315         0.785912
 C        -0.738512         0.979075         0.094981
 C        -0.640016         1.672385        -1.300386
 C        -1.888785         2.390863        -0.857176
 C        -3.043270         2.625800        -1.835219
 O        -3.384003         1.267955        -2.011287
 C        -2.818666         1.120831        -0.641364
 C        -1.970353        -0.003767        -0.185371
 C        -1.424819         2.435748         0.487859
 H         0.262597         0.788975         1.741628
 H         0.217942         2.432819        -1.432756
 H        -0.649044         1.038051        -2.259214
 H        -3.823538         3.180876        -1.376665
 H        -2.862631         3.032954        -2.793359
 H        -3.694027         1.551130        -0.083390
 H        -2.348774        -0.428711         0.813448
 H        -1.688949        -0.746880        -0.986635
 H        -0.442465         3.132209         0.556262
 H        -1.895995         2.527933         1.484057
