19
Iteration:  2976
 O         0.379569         0.293387         0.753237
 C        -0.692168         1.025100         0.152472
 C        -0.680723         1.711277        -1.337121
 C        -2.048529         2.378201        -0.818957
 C        -2.990374         2.691415        -2.069632
 O        -3.331535         1.191735        -1.983784
 C        -2.941285         1.163177        -0.591559
 C        -1.982042         0.130043        -0.030642
 C        -1.332106         2.522433         0.553344
 H         0.149066        -0.568811         1.208577
 H         0.253128         2.331006        -1.432729
 H        -0.663718         1.054094        -2.270247
 H        -3.900564         3.184792        -1.676950
 H        -2.595309         3.046207        -3.002242
 H        -3.843012         1.395880         0.045209
 H        -2.309179        -0.408084         0.753592
 H        -1.832720        -0.624905        -0.791915
 H        -0.575809         3.322664         0.451352
 H        -2.050485         2.638930         1.333774
