19
Iteration:  3357charge 0 multiplicity 1
 O         0.278556         0.218681         0.853417
 C        -0.693242         0.997460         0.140014
 C        -0.623877         1.724104        -1.286749
 C        -2.049080         2.421506        -0.841873
 C        -3.049938         2.689913        -1.996291
 O        -3.382236         1.211519        -2.079549
 C        -2.856867         1.117091        -0.648657
 C        -1.861000         0.077992        -0.045968
 C        -1.435157         2.584635         0.558051
 H         1.189627         0.476968         0.469389
 H         0.201979         2.349262        -1.408077
 H        -0.749488         1.042877        -2.147851
 H        -3.966240         3.267506        -1.774593
 H        -2.816779         3.149199        -2.943656
 H        -3.595609         1.385417         0.047801
 H        -2.160093        -0.412712         0.881029
 H        -1.556586        -0.806053        -0.804240
 H        -0.596021         3.323487         0.588355
 H        -2.079730         2.574222         1.394459
