19
Iteration:  3929charge 0 multiplicity 1
 O         0.308489         0.356748         0.841899
 C        -0.690899         1.085841         0.176050
 C        -0.638803         1.558061        -1.321870
 C        -1.961949         2.316205        -1.000187
 C        -3.087119         2.644962        -1.951325
 O        -3.434121         1.295687        -2.063055
 C        -2.841805         1.099820        -0.626530
 C        -1.921593         0.012886        -0.003384
 C        -1.310142         2.611719         0.437857
 H         0.156703         0.566280         1.827213
 H         0.208187         2.233171        -1.639296
 H        -0.795036         0.700259        -2.030783
 H        -3.791279         3.167769        -1.206689
 H        -2.993214         3.227246        -2.828298
 H        -3.761497         1.226529        -0.034025
 H        -2.194651        -0.194999         1.019794
 H        -1.658346        -0.804555        -0.726520
 H        -0.401853         3.219037         0.517106
 H        -1.941930         2.856545         1.326010
