19
Iteration:  4570charge 0 multiplicity 1
 O         0.417556         0.567830         0.828749
 C        -0.737762         0.952709         0.186355
 C        -0.736282         1.568199        -1.300336
 C        -2.029708         2.255194        -0.765022
 C        -2.859036         2.785319        -1.950766
 O        -3.445889         1.350217        -2.159114
 C        -2.892091         0.999604        -0.705105
 C        -1.920451         0.012434        -0.056570
 C        -1.486300         2.375922         0.556525
 H         0.924643         1.397636         0.925004
 H         0.058086         2.247447        -1.341733
 H        -0.626799         0.979408        -2.207654
 H        -3.582249         3.538516        -1.551318
 H        -2.372177         3.208311        -2.873927
 H        -3.805582         1.064694        -0.048008
 H        -2.269812        -0.511055         0.828362
 H        -1.737384        -0.717819        -0.947017
 H        -0.759928         3.072431         0.671264
 H        -2.051899         2.231010         1.470772
