19
Iteration:  2060charge 0 multiplicity 1
 O         0.358068         0.457188         0.690327
 C        -0.779264         1.066320         0.115733
 C        -0.573392         1.576294        -1.256661
 C        -1.976930         2.245229        -0.917407
 C        -2.904031         2.616503        -2.021433
 O        -3.580983         1.284017        -1.937929
 C        -2.939916         1.145897        -0.598406
 C        -2.008300         0.119676        -0.087250
 C        -1.218197         2.448794         0.563182
 H         0.357612         0.629205         1.688839
 H         0.319957         2.143850        -1.300075
 H        -0.590750         0.886045        -2.111266
 H        -3.645028         3.450249        -1.924217
 H        -2.466476         2.875842        -3.005390
 H        -3.666500         1.341345         0.172167
 H        -2.346827        -0.268912         0.922483
 H        -1.787189        -0.708377        -0.726354
 H        -0.358186         3.093181         0.491375
 H        -2.068291         2.665839         1.398290
