19
Iteration:  3766
 O         0.352495         0.617994         0.842314
 C        -0.733795         1.060105         0.121501
 C        -0.571422         1.443002        -1.262362
 C        -2.003975         2.260268        -0.851382
 C        -2.879558         2.652285        -2.008322
 O        -3.511013         1.396060        -1.984713
 C        -2.984083         1.033104        -0.634845
 C        -2.005957        -0.010985        -0.043636
 C        -1.337130         2.494638         0.442808
 H         0.744155        -0.095660         0.359025
 H         0.175234         2.197803        -1.294103
 H        -0.624633         0.709325        -2.028304
 H        -3.584084         3.539795        -1.735816
 H        -2.291513         2.797747        -2.900796
 H        -3.788954         1.202111         0.026812
 H        -2.354328        -0.490099         0.907209
 H        -1.701518        -0.706261        -0.778377
 H        -0.507233         3.214621         0.434400
 H        -1.960025         2.819413         1.350963
