19
Iteration:   904
 O         0.389008         0.509087         0.812621
 C        -0.715883         0.983976         0.112106
 C        -0.605423         1.613749        -1.307441
 C        -1.952993         2.284980        -0.891849
 C        -2.933849         2.737772        -2.042290
 O        -3.511543         1.293822        -1.999724
 C        -2.968195         1.140451        -0.610531
 C        -2.041540        -0.061980        -0.104251
 C        -1.327151         2.393861         0.628591
 H         1.011180         1.284847         0.697024
 H         0.215403         2.386582        -1.152311
 H        -0.715554         0.964525        -2.191109
 H        -3.808425         3.280903        -1.862218
 H        -2.477368         2.949782        -3.012690
 H        -3.804479         1.644640         0.192960
 H        -2.434109        -0.501688         0.830338
 H        -1.560088        -0.724930        -0.907245
 H        -0.530130         3.092483         0.713774
 H        -2.013585         2.251973         1.496962
