19
Iteration:  2045
 O         0.369725         0.365340         0.782082
 C        -0.718497         0.956529         0.175602
 C        -0.626439         1.584303        -1.310673
 C        -1.891950         2.335870        -0.923885
 C        -3.054127         2.668343        -2.014025
 O        -3.502953         1.291220        -1.925755
 C        -2.878239         1.181405        -0.624927
 C        -1.973005         0.018970        -0.041982
 C        -1.343754         2.589711         0.416043
 H         0.211735         0.330176         1.755407
 H         0.182277         2.399662        -1.452551
 H        -0.553225         0.843389        -2.158290
 H        -3.742676         3.373615        -1.560303
 H        -2.722597         2.878679        -3.073276
 H        -3.659856         1.622236         0.165687
 H        -2.359085        -0.593460         0.796351
 H        -1.723463        -0.774342        -0.799416
 H        -0.441969         3.207665         0.414962
 H        -1.841884         2.777007         1.316649
