19
Iteration:  2312charge 0 multiplicity 1
 O         0.495912         0.480641         0.707069
 C        -0.742138         0.954521         0.092861
 C        -0.684770         1.608658        -1.341520
 C        -1.968265         2.270084        -0.891916
 C        -2.907416         2.679242        -2.048525
 O        -3.494480         1.313244        -1.932621
 C        -2.919210         1.174788        -0.588206
 C        -2.057998         0.058650         0.064028
 C        -1.370365         2.426307         0.485981
 H         0.422982        -0.055882         1.459545
 H         0.185409         2.362271        -1.474939
 H        -0.846822         0.860596        -2.210888
 H        -3.600413         3.573201        -1.980782
 H        -2.091303         3.001495        -2.795217
 H        -3.673061         1.423903         0.044834
 H        -2.373833        -0.066181         1.124081
 H        -2.064090        -0.943332        -0.528276
 H        -0.652521         3.161224         0.651320
 H        -2.138569         2.508429         1.264721
