19
Iteration:   837
 O         0.353823         0.500827         0.909254
 C        -0.716971         0.991825         0.059594
 C        -0.630290         1.612361        -1.364783
 C        -2.044579         2.328019        -0.801760
 C        -3.036683         2.682897        -1.942174
 O        -3.341362         1.272146        -2.008756
 C        -2.944433         1.137663        -0.691985
 C        -1.992260         0.053256        -0.144976
 C        -1.269814         2.435491         0.574754
 H         0.936194        -0.027791         0.405518
 H         0.147106         2.347699        -1.315190
 H        -0.740476         0.821817        -2.038788
 H        -3.837191         3.056501        -1.332950
 H        -3.032275         3.249174        -2.892172
 H        -3.928459         1.532667        -0.137942
 H        -2.362957        -0.382856         0.783073
 H        -1.870622        -0.895828        -0.761507
 H        -0.603138         3.200471         0.406084
 H        -1.895789         2.430485         1.438772
