19
Iteration:   336charge 0 multiplicity 1
 O         0.436284         0.614719         0.677856
 C        -0.778539         0.998348         0.183618
 C        -0.726456         1.602985        -1.255582
 C        -2.028252         2.277471        -0.774477
 C        -2.943640         2.748938        -1.980154
 O        -3.336633         1.349153        -2.095280
 C        -2.867790         1.081821        -0.670728
 C        -1.910516        -0.073972        -0.278749
 C        -1.470958         2.309997         0.784024
 H         0.313788         0.575897         1.707695
 H        -0.037741         2.441348        -1.209457
 H        -0.844391         1.134996        -2.225393
 H        -3.817506         3.352450        -1.590851
 H        -2.423948         3.118353        -2.803106
 H        -3.762009         1.167816        -0.027233
 H        -2.354010        -0.575327         0.551603
 H        -1.624747        -0.632994        -1.176186
 H        -0.647977         2.961385         0.918912
 H        -2.287243         2.284444         1.650820
