19
Iteration:  4268
 O         0.245913         0.301029         0.777932
 C        -0.744207         1.049868         0.128893
 C        -0.588226         1.783179        -1.232280
 C        -1.970979         2.352443        -0.930190
 C        -3.013132         2.651328        -2.012207
 O        -3.465609         1.226094        -2.032850
 C        -2.835603         1.120841        -0.641424
 C        -1.900983         0.033444        -0.058592
 C        -1.401712         2.482101         0.572987
 H         1.000052         0.754250         1.086987
 H         0.207746         2.467475        -1.289383
 H        -0.436800         1.261238        -2.196059
 H        -3.813520         3.406681        -1.629997
 H        -2.569606         2.834996        -2.955833
 H        -3.553267         1.254290         0.160601
 H        -2.173712        -0.320339         0.956441
 H        -1.550147        -0.873276        -0.655602
 H        -0.573365         3.191273         0.653903
 H        -2.186990         2.497345         1.240227
