19
Iteration:  4577charge 0 multiplicity 1
 O         0.421825         0.545442         0.861115
 C        -0.744369         1.042041         0.160511
 C        -0.700542         1.595888        -1.327969
 C        -2.090045         2.165646        -0.797839
 C        -2.862418         2.805392        -1.962140
 O        -3.407362         1.395338        -2.110426
 C        -2.979991         1.043081        -0.674569
 C        -1.888921        -0.037808        -0.062577
 C        -1.439322         2.330237         0.540076
 H         0.901359         1.345585         0.931456
 H        -0.033156         2.560684        -1.322706
 H        -0.637077         1.045672        -2.275290
 H        -3.701660         3.470131        -1.798101
 H        -2.225822         2.995535        -2.837512
 H        -3.877945         0.888694        -0.015306
 H        -2.485714        -0.560508         0.803097
 H        -1.563198        -0.845963        -0.728798
 H        -0.530872         3.111240         0.596491
 H        -2.224286         2.197093         1.353362
