19
Iteration:  4741
 O         0.277202         0.347186         0.883171
 C        -0.742244         1.088347         0.148600
 C        -0.656030         1.710638        -1.298849
 C        -2.006061         2.265933        -0.868758
 C        -2.993115         2.753894        -1.909533
 O        -3.402196         1.232472        -2.104105
 C        -2.845297         1.041973        -0.716884
 C        -1.872749         0.098903        -0.144214
 C        -1.379545         2.413874         0.606857
 H         1.128336         0.798666         1.175717
 H         0.087141         2.576818        -1.535133
 H        -0.578312         0.978379        -2.128205
 H        -4.008445         3.068665        -1.511838
 H        -2.769008         3.179655        -2.912758
 H        -3.703299         1.304402        -0.114425
 H        -2.350447        -0.282341         0.771405
 H        -1.563256        -0.699778        -0.754496
 H        -0.701272         3.346964         0.611707
 H        -2.215286         2.555945         1.348673
