19
Iteration:  4140
 O         0.278298         0.443205         0.754192
 C        -0.744825         1.022402         0.132192
 C        -0.724548         1.695664        -1.321010
 C        -1.960216         2.356088        -0.814642
 C        -2.942310         2.643134        -1.989549
 O        -3.328558         1.195892        -2.022924
 C        -2.935779         1.141023        -0.606622
 C        -2.008963         0.024493        -0.096761
 C        -1.345619         2.432336         0.575860
 H         1.054135         1.107368         0.831711
 H         0.146199         2.366050        -1.232480
 H        -0.701920         0.994440        -2.186559
 H        -3.714941         3.311381        -1.839754
 H        -2.502707         2.946247        -2.945951
 H        -3.696392         1.389708         0.074611
 H        -2.266486        -0.519341         0.832958
 H        -1.623861        -0.662019        -0.875041
 H        -0.579509         3.226196         0.817148
 H        -1.982055         2.419990         1.490939
