19
Iteration:   962charge 0 multiplicity 1
 O         0.384039         0.378213         0.711503
 C        -0.731073         1.034931         0.123700
 C        -0.636147         1.574990        -1.290864
 C        -1.963245         2.297430        -0.855824
 C        -3.067400         2.653291        -1.884937
 O        -3.363076         1.318171        -2.081759
 C        -2.887678         1.078901        -0.686528
 C        -2.012997         0.117638        -0.012229
 C        -1.334205         2.506991         0.541501
 H         0.469903         0.737718         1.638145
 H         0.171546         2.267476        -1.456388
 H        -0.580607         0.886585        -2.131007
 H        -3.973786         3.098991        -1.499675
 H        -2.914425         3.144317        -2.823485
 H        -3.939005         1.235404        -0.074899
 H        -2.539635        -0.243615         0.821321
 H        -1.659584        -0.739948        -0.447935
 H        -0.462293         3.104975         0.523564
 H        -1.921897         2.786123         1.369902
