19
Iteration:  4095charge 0 multiplicity 1
 O         0.456557         0.498945         0.731942
 C        -0.762302         1.059188         0.203720
 C        -0.594970         1.622441        -1.233938
 C        -2.013538         2.227986        -0.907034
 C        -2.935183         2.685106        -2.019209
 O        -3.586576         1.374535        -2.056111
 C        -2.893237         1.046830        -0.704788
 C        -1.934280        -0.033112        -0.011982
 C        -1.367898         2.419603         0.561905
 H         0.481989         0.900515         1.654282
 H         0.173557         2.404307        -1.198292
 H        -0.601180         0.932846        -2.155207
 H        -3.592523         3.438345        -1.732016
 H        -2.529299         2.950316        -2.967469
 H        -3.681864         1.179507        -0.031320
 H        -2.515066        -0.428864         0.843033
 H        -1.552115        -0.812749        -0.763756
 H        -0.564782         3.182646         0.765958
 H        -2.136927         2.533812         1.322656
