19
Iteration:  4382
 O         0.217122         0.373263         0.747193
 C        -0.788742         1.014395         0.117094
 C        -0.571827         1.752376        -1.221938
 C        -1.964768         2.421779        -0.842440
 C        -3.037354         2.596680        -2.021201
 O        -3.340969         1.162900        -1.983863
 C        -2.811457         1.147568        -0.622341
 C        -1.994419         0.018193        -0.175752
 C        -1.378389         2.488972         0.616450
 H         0.963997         0.933055         0.843818
 H         0.298070         2.449962        -1.341458
 H        -0.395969         1.165081        -2.096765
 H        -3.840472         3.266530        -1.592974
 H        -2.616211         3.136097        -2.957287
 H        -3.749120         1.383004        -0.154666
 H        -2.431073        -0.487872         0.768917
 H        -1.626881        -0.676960        -0.924653
 H        -0.601304         3.149755         0.838609
 H        -2.074459         2.407905         1.427787
