19
Iteration:  4899charge 0 multiplicity 1
 O         0.261267         0.383530         0.817522
 C        -0.739694         1.004864         0.098749
 C        -0.586525         1.767148        -1.256748
 C        -1.962085         2.276655        -0.846848
 C        -2.975367         2.672253        -1.928335
 O        -3.396547         1.241532        -2.034681
 C        -2.927988         1.110570        -0.740575
 C        -1.893398         0.087972        -0.079773
 C        -1.453326         2.437305         0.561662
 H         1.165294         0.812287         0.954864
 H         0.250163         2.467715        -1.189164
 H        -0.448180         1.210580        -2.207119
 H        -3.910223         3.146817        -1.632188
 H        -2.548751         3.004131        -2.909628
 H        -3.725068         1.138387        -0.018395
 H        -2.299214        -0.381921         0.837306
 H        -1.574106        -0.675041        -0.839852
 H        -0.821529         3.350378         0.565271
 H        -2.082480         2.233465         1.437925
