19
Iteration:  1460charge 0 multiplicity 1
 O         0.376633         0.528924         0.701912
 C        -0.786983         1.010436         0.141100
 C        -0.704860         1.662303        -1.271708
 C        -2.016556         2.284899        -0.809113
 C        -2.948445         2.680285        -1.993509
 O        -3.331622         1.266197        -2.072660
 C        -2.915985         1.129713        -0.661223
 C        -1.922442         0.109471        -0.088666
 C        -1.366005         2.369451         0.642928
 H         0.097178        -0.382884         1.121338
 H         0.249207         2.183218        -1.230213
 H        -0.905418         0.915074        -2.062909
 H        -3.812572         3.322322        -1.694799
 H        -2.610706         2.920023        -3.010823
 H        -3.821363         1.371510         0.039864
 H        -2.299073        -0.330795         0.724653
 H        -1.657219        -0.620258        -0.772828
 H        -0.646504         3.139775         0.862099
 H        -1.985056         2.402661         1.653210
