19
Iteration:  2852charge 0 multiplicity 1
 O         0.367557         0.372179         0.748266
 C        -0.753251         1.003025         0.143760
 C        -0.625612         1.610583        -1.263481
 C        -1.953106         2.318656        -0.933667
 C        -3.045803         2.660024        -2.002003
 O        -3.444431         1.227698        -1.962800
 C        -2.867325         1.195641        -0.671102
 C        -1.982979         0.120886        -0.061857
 C        -1.279054         2.487365         0.555230
 H         0.133235         0.209252         1.697268
 H         0.213145         2.328010        -1.533316
 H        -0.713865         0.841767        -2.129956
 H        -3.930300         3.254934        -1.692395
 H        -2.719752         3.065549        -2.978369
 H        -3.773858         1.374506         0.091635
 H        -2.333436        -0.410461         0.745089
 H        -1.692322        -0.523998        -0.837316
 H        -0.601670         3.324151         0.572383
 H        -1.874810         2.773187         1.513894
