19
Iteration:  1200charge 0 multiplicity 1
 O         0.301821         0.353512         0.784843
 C        -0.728736         1.102968         0.170488
 C        -0.646280         1.671546        -1.307960
 C        -1.977722         2.292378        -0.863571
 C        -3.039760         2.641443        -1.966266
 O        -3.435122         1.285860        -2.037095
 C        -2.811831         1.129595        -0.620867
 C        -1.889982         0.045652        -0.136669
 C        -1.335351         2.520260         0.537674
 H        -0.155513        -0.207863         1.409230
 H         0.092040         2.460384        -1.334380
 H        -0.678543         0.927970        -2.101917
 H        -3.809146         3.317485        -1.532081
 H        -2.571954         2.943687        -2.893898
 H        -3.761821         1.267784         0.109482
 H        -2.243245        -0.489784         0.698698
 H        -1.519240        -0.676681        -0.885379
 H        -0.670756         3.361910         0.596862
 H        -2.002874         2.613799         1.433443
