19
Iteration:  4161
 O         0.282082         0.351276         0.847670
 C        -0.732283         1.027174         0.167609
 C        -0.617713         1.632474        -1.285737
 C        -2.048962         2.316655        -0.849148
 C        -3.076003         2.699233        -1.918838
 O        -3.305808         1.270649        -2.104998
 C        -2.902596         1.030485        -0.665837
 C        -1.942515         0.083416        -0.093210
 C        -1.332730         2.568752         0.516760
 H         1.143485         0.583123         0.529297
 H         0.023766         2.507193        -1.449250
 H        -0.748039         0.841978        -2.071273
 H        -3.986991         3.059480        -1.535189
 H        -2.703788         3.314110        -2.745257
 H        -3.822813         0.976310        -0.047124
 H        -2.320534        -0.166782         0.935506
 H        -1.651490        -0.862763        -0.689204
 H        -0.550603         3.343379         0.493250
 H        -1.784415         2.743602         1.459593
