19
Iteration:  4710charge 0 multiplicity 1
 O         0.408695         0.609137         0.791013
 C        -0.774462         0.960563         0.139396
 C        -0.692919         1.584027        -1.259917
 C        -1.929398         2.222519        -0.828889
 C        -2.923473         2.726847        -1.937729
 O        -3.374206         1.359744        -2.100267
 C        -2.875513         1.081532        -0.657275
 C        -2.017573        -0.056577        -0.137779
 C        -1.453195         2.347147         0.613825
 H         0.760817         1.453015         0.989124
 H         0.072617         2.400634        -1.175142
 H        -0.479102         0.893956        -2.080746
 H        -3.856389         3.203295        -1.658219
 H        -2.671379         3.196547        -2.884896
 H        -3.757080         1.255189        -0.046671
 H        -2.558921        -0.402808         0.720673
 H        -1.732974        -0.842881        -0.882653
 H        -0.586850         3.068608         0.684369
 H        -2.352593         2.471015         1.323396
