19
Iteration:  2402charge 0 multiplicity 1
 O         0.327101         0.430767         0.753481
 C        -0.706582         1.062519         0.111299
 C        -0.608057         1.504356        -1.402873
 C        -1.956372         2.267653        -0.912980
 C        -3.024508         2.659775        -1.966610
 O        -3.455921         1.251107        -1.960198
 C        -2.947940         1.188708        -0.640503
 C        -2.036080         0.196700        -0.029374
 C        -1.210629         2.456062         0.538864
 H         0.043880         0.092621         1.607652
 H         0.200415         2.279044        -1.577825
 H        -0.568776         0.656604        -2.092839
 H        -3.846563         3.105351        -1.300789
 H        -2.797565         3.122746        -2.925001
 H        -3.633396         1.565418         0.083207
 H        -2.164011        -0.193872         1.012035
 H        -1.731905        -0.687151        -0.757649
 H        -0.344653         3.218052         0.700466
 H        -1.828615         2.496331         1.398453
