19
Iteration:  1106
 O         0.456291         0.547211         0.770054
 C        -0.760098         0.967735         0.211409
 C        -0.699139         1.541125        -1.362909
 C        -2.003602         2.234330        -0.862560
 C        -2.991462         2.826694        -1.859150
 O        -3.366825         1.309191        -2.131728
 C        -3.014217         1.010304        -0.700121
 C        -2.003191         0.010360        -0.057296
 C        -1.268079         2.452470         0.558519
 H         0.326690         0.537569         1.798521
 H         0.030283         2.318811        -1.445564
 H        -0.733363         0.781669        -2.156820
 H        -3.777043         3.388959        -1.390209
 H        -2.552185         3.224151        -2.766536
 H        -4.011609         1.211532        -0.256719
 H        -2.625439        -0.250485         0.953469
 H        -1.574776        -0.882809        -0.616722
 H        -0.485810         3.248009         0.338852
 H        -1.758370         2.795904         1.407611
