19
Iteration:  3913charge 0 multiplicity 1
 O         0.366210         0.488425         0.796357
 C        -0.776936         1.026904         0.201834
 C        -0.572549         1.469730        -1.266137
 C        -1.914475         2.246572        -0.942845
 C        -3.085248         2.716641        -1.909165
 O        -3.465324         1.259715        -2.013377
 C        -2.893502         1.137552        -0.690465
 C        -1.954494         0.116129        -0.044478
 C        -1.307518         2.531658         0.416336
 H         0.115358         0.194084         1.704457
 H         0.274636         2.171208        -1.266347
 H        -0.500620         0.743534        -2.066368
 H        -3.919460         3.290501        -1.584940
 H        -2.932997         3.093598        -2.970016
 H        -3.575140         1.454897         0.092595
 H        -2.392178        -0.543970         0.783585
 H        -1.518580        -0.709112        -0.677075
 H        -0.476470         3.244186         0.302547
 H        -2.043850         2.743812         1.191356
