19
Iteration:  3345
 O         0.243253         0.208236         0.842276
 C        -0.693240         1.062239         0.043179
 C        -0.665914         1.745131        -1.313205
 C        -1.993825         2.345490        -0.829605
 C        -3.021428         2.651225        -1.940622
 O        -3.307772         1.176352        -2.063230
 C        -2.972721         1.133270        -0.639810
 C        -1.890778         0.144371        -0.061195
 C        -1.383401         2.586376         0.568341
 H         1.180750         0.351188         0.739190
 H         0.000597         2.574077        -1.360161
 H        -0.723992         1.252944        -2.290522
 H        -3.863041         3.086343        -1.474871
 H        -2.545698         3.037880        -2.851120
 H        -3.921144         1.058757        -0.204100
 H        -2.089012        -0.231703         0.951412
 H        -1.624478        -0.761413        -0.796659
 H        -0.576659         3.322414         0.635104
 H        -1.966498         2.723539         1.485138
