19
Iteration:  4655charge 0 multiplicity 1
 O         0.289555         0.313014         0.853514
 C        -0.771692         1.097436         0.124315
 C        -0.669339         1.780623        -1.298011
 C        -1.967720         2.291954        -0.823180
 C        -3.011474         2.733866        -1.896202
 O        -3.375197         1.203224        -2.083193
 C        -2.877214         1.068784        -0.774802
 C        -1.896722         0.021145        -0.083433
 C        -1.402369         2.487550         0.554642
 H         1.013418         0.930741         0.810373
 H         0.180721         2.508358        -1.149260
 H        -0.505116         1.067099        -2.102860
 H        -3.957028         3.211294        -1.717507
 H        -2.609791         3.003232        -2.885849
 H        -3.689963         1.258073        -0.037541
 H        -2.231135        -0.516848         0.849369
 H        -1.578333        -0.801437        -0.743632
 H        -0.649295         3.322348         0.747419
 H        -2.062615         2.566706         1.484453
