19
Iteration:  4732
 O         0.308813         0.412129         0.837241
 C        -0.706514         1.061842         0.149141
 C        -0.572609         1.672119        -1.265198
 C        -1.963780         2.304949        -0.848485
 C        -3.021261         2.787152        -1.910236
 O        -3.389604         1.221474        -2.116800
 C        -2.945999         1.068959        -0.711881
 C        -1.929733         0.032096        -0.102600
 C        -1.445338         2.407158         0.553636
 H         0.928674         1.175065         1.120383
 H         0.336518         2.291774        -1.375961
 H        -0.710139         0.945425        -2.074883
 H        -3.910133         3.338156        -1.537688
 H        -2.684537         3.241797        -2.838116
 H        -3.812163         1.123326        -0.064674
 H        -2.323576        -0.459662         0.757574
 H        -1.443157        -0.689324        -0.782787
 H        -0.614272         3.159435         0.603005
 H        -2.067956         2.313256         1.512423
