19
Iteration:    40charge 0 multiplicity 1
 O         0.274601         0.357907         0.860205
 C        -0.720519         1.038889         0.156876
 C        -0.556339         1.714600        -1.264427
 C        -1.952630         2.305095        -0.908565
 C        -3.096923         2.713818        -1.857599
 O        -3.482862         1.318714        -2.029380
 C        -2.832142         1.005821        -0.681624
 C        -1.846019        -0.023073        -0.194254
 C        -1.407835         2.487231         0.509872
 H         0.995611         0.995314         0.882965
 H         0.135894         2.565067        -1.115201
 H        -0.416461         1.120737        -2.179395
 H        -3.943781         3.290430        -1.363918
 H        -3.000281         3.244365        -2.801821
 H        -3.701280         1.225979         0.009607
 H        -2.103406        -0.677784         0.694825
 H        -1.471406        -0.725781        -0.965379
 H        -0.577049         3.206674         0.414557
 H        -2.254648         2.606397         1.231327
