19
Iteration:  3500charge 0 multiplicity 1
 O         0.436536         0.514457         0.697661
 C        -0.757511         1.061069         0.116673
 C        -0.759639         1.556281        -1.279675
 C        -1.990158         2.269143        -0.825209
 C        -2.856576         2.726587        -2.070022
 O        -3.377131         1.266243        -2.034168
 C        -3.006491         1.083023        -0.600232
 C        -1.988992         0.123175        -0.007043
 C        -1.355240         2.425863         0.593020
 H         0.315028        -0.203241         1.335223
 H        -0.102771         2.380967        -1.519913
 H        -0.657772         0.825144        -2.094278
 H        -3.600561         3.446358        -1.956250
 H        -2.422526         2.869221        -3.038875
 H        -3.933372         1.261028         0.114616
 H        -2.300611        -0.235110         0.978444
 H        -1.760156        -0.877785        -0.568785
 H        -0.463829         3.157875         0.786994
 H        -2.057944         2.541992         1.433758
