19
Iteration:  1206
 O         0.304494         0.412937         0.789536
 C        -0.748633         1.052104         0.160292
 C        -0.629458         1.618851        -1.320892
 C        -1.939729         2.265373        -0.811527
 C        -3.071775         2.707769        -1.964488
 O        -3.442068         1.272489        -2.032255
 C        -2.802650         1.083363        -0.669718
 C        -1.868226         0.059800        -0.126670
 C        -1.369441         2.508510         0.565599
 H        -0.159015        -0.141877         1.401240
 H         0.200949         2.359312        -1.422237
 H        -0.708269         1.026368        -2.258315
 H        -3.826549         3.434700        -1.620748
 H        -2.723659         3.049790        -2.975058
 H        -3.566377         1.452967        -0.083842
 H        -2.347300        -0.393495         0.933357
 H        -1.602068        -0.607744        -0.938806
 H        -0.517854         3.258103         0.634248
 H        -2.000096         2.637321         1.443387
