19
Iteration:  4060charge 0 multiplicity 1
 O         0.316209         0.572310         0.900920
 C        -0.690704         1.054101         0.062605
 C        -0.656353         1.527817        -1.386249
 C        -1.969295         2.331859        -0.850408
 C        -3.097893         2.705535        -1.895511
 O        -3.379777         1.233571        -2.050647
 C        -2.825045         1.109147        -0.627287
 C        -1.974330         0.072049        -0.084715
 C        -1.306604         2.464295         0.488500
 H        -0.101496        -0.226762         1.375304
 H         0.290453         2.125392        -1.512080
 H        -0.685938         0.751161        -2.238984
 H        -3.817738         3.206823        -1.306391
 H        -2.880544         3.180076        -2.807299
 H        -3.681255         1.328131         0.009827
 H        -2.352408        -0.741815         0.626116
 H        -1.656569        -0.597635        -1.044656
 H        -0.408802         3.010160         0.797183
 H        -2.054526         2.496894         1.235473
