19
Iteration:  1984
 O         0.450363         0.573111         0.863924
 C        -0.684811         0.917396         0.119351
 C        -0.694356         1.535327        -1.367055
 C        -1.990591         2.337548        -0.854382
 C        -2.946790         2.711784        -2.018122
 O        -3.492011         1.328289        -2.008929
 C        -2.983378         1.177817        -0.633249
 C        -2.033184        -0.027701         0.049474
 C        -1.286196         2.417767         0.450044
 H         0.903616        -0.208425         0.553337
 H         0.116156         2.185791        -1.510799
 H        -0.876939         0.864464        -2.206218
 H        -3.731467         3.494149        -1.756516
 H        -2.496946         2.815157        -3.016316
 H        -3.830764         1.429671         0.035525
 H        -2.414831        -0.085250         1.076943
 H        -1.967879        -0.877985        -0.594568
 H        -0.383652         3.024588         0.494522
 H        -1.833365         2.696059         1.517409
