19
Iteration:  2589
 O         0.485449         0.507986         0.674520
 C        -0.713394         0.973989         0.143409
 C        -0.676058         1.564623        -1.242465
 C        -1.954517         2.321948        -0.931055
 C        -2.920709         2.682430        -2.053065
 O        -3.471879         1.276662        -1.969635
 C        -2.910160         1.181740        -0.565230
 C        -2.105832        -0.016283        -0.019387
 C        -1.356010         2.527327         0.541784
 H         0.395905        -0.125409         1.457753
 H         0.217651         2.233490        -1.519019
 H        -0.886183         0.760879        -2.014865
 H        -3.726981         3.391027        -1.774932
 H        -2.393114         2.908646        -3.006937
 H        -3.829749         1.383507         0.140637
 H        -2.477570        -0.462982         0.991548
 H        -2.044607        -0.723926        -0.883471
 H        -0.473359         3.164205         0.668471
 H        -1.967526         2.685920         1.392475
