19
Iteration:  3916
 O         0.355201         0.461559         0.804501
 C        -0.787138         1.029299         0.184215
 C        -0.602926         1.475390        -1.252463
 C        -1.895810         2.244513        -0.931312
 C        -3.121053         2.703236        -1.927360
 O        -3.453370         1.276356        -2.024044
 C        -2.890835         1.128794        -0.686077
 C        -1.909391         0.124696        -0.025313
 C        -1.303862         2.542794         0.403498
 H         0.144275         0.257259         1.700928
 H         0.290947         2.225345        -1.302683
 H        -0.507628         0.714043        -2.041610
 H        -3.865189         3.323089        -1.438093
 H        -2.926702         3.054883        -2.933301
 H        -3.575340         1.469972         0.025391
 H        -2.401664        -0.522186         0.762094
 H        -1.514745        -0.741603        -0.715250
 H        -0.488635         3.214330         0.318776
 H        -2.064623         2.807773         1.172319
