19
Iteration:  2816charge 0 multiplicity 1
 O         0.484801         0.505379         0.647809
 C        -0.712208         0.967789         0.134200
 C        -0.685971         1.591170        -1.292673
 C        -1.972862         2.276630        -0.858558
 C        -2.827979         2.665143        -2.089382
 O        -3.475484         1.289100        -1.918219
 C        -2.922525         1.161514        -0.599435
 C        -2.065956         0.071207         0.019463
 C        -1.454887         2.477147         0.579779
 H         0.358473        -0.281366         1.204507
 H         0.038136         2.391587        -1.371563
 H        -0.798096         1.158434        -2.274432
 H        -3.492126         3.457376        -1.933258
 H        -2.139433         2.765628        -2.975654
 H        -3.833050         1.450956         0.038030
 H        -2.551285        -0.391343         0.935122
 H        -1.904602        -0.845386        -0.649391
 H        -0.566887         3.213096         0.433111
 H        -2.161167         2.440348         1.421816
