19
Iteration:  1388charge 0 multiplicity 1
 O         0.425609         0.660786         0.778093
 C        -0.782144         0.939075         0.166501
 C        -0.653126         1.562286        -1.288119
 C        -1.944437         2.300793        -0.840009
 C        -2.993248         2.735331        -1.960239
 O        -3.439172         1.361162        -2.041010
 C        -2.895923         1.080718        -0.773292
 C        -1.963743        -0.010782        -0.140661
 C        -1.414113         2.316384         0.619526
 H         0.183400         0.144331         1.639982
 H         0.227137         2.200471        -1.403089
 H        -0.881839         0.916642        -2.154094
 H        -3.776712         3.404009        -1.558201
 H        -2.481806         3.089617        -2.863605
 H        -3.599422         1.327559        -0.059441
 H        -2.390478        -0.422856         0.896029
 H        -1.537935        -0.940979        -0.710850
 H        -0.511253         3.021867         0.670380
 H        -1.866138         2.425440         1.559277
