19
Iteration:   163charge 0 multiplicity 1
 O         0.274561         0.496351         0.769059
 C        -0.764520         1.048596         0.076766
 C        -0.672566         1.753507        -1.237458
 C        -2.013377         2.324261        -0.785114
 C        -3.070725         2.678078        -1.918908
 O        -3.305951         1.251188        -2.115661
 C        -2.881129         1.101151        -0.718986
 C        -1.916510        -0.006272        -0.214655
 C        -1.319890         2.288588         0.774080
 H         1.096070         0.915467         0.667643
 H         0.052801         2.524896        -1.164263
 H        -0.477927         1.350972        -2.175112
 H        -3.915478         3.188163        -1.359032
 H        -2.831489         3.200878        -2.825352
 H        -3.820533         1.250858        -0.128731
 H        -2.313282        -0.585734         0.644197
 H        -1.643326        -0.731738        -1.035196
 H        -0.614450         3.034888         0.798281
 H        -1.979998         2.226164         1.634207
