19
Iteration:  1579
 O         0.354982         0.351409         0.716827
 C        -0.742565         1.069316         0.148838
 C        -0.620862         1.645877        -1.272215
 C        -2.003823         2.283853        -0.853299
 C        -2.922759         2.621123        -2.035304
 O        -3.439885         1.304031        -2.000689
 C        -2.959652         1.147647        -0.613441
 C        -1.950842         0.101515        -0.080878
 C        -1.374075         2.429320         0.560906
 H         0.737169         0.874149         1.370160
 H         0.164201         2.429604        -1.436805
 H        -0.579980         0.785043        -2.045090
 H        -3.682920         3.400009        -1.817229
 H        -2.495573         2.912379        -2.998118
 H        -3.782795         1.556171        -0.014222
 H        -2.311902        -0.324152         0.848098
 H        -1.702197        -0.727781        -0.715286
 H        -0.661642         3.064568         0.853375
 H        -2.046803         2.547131         1.459108
