19
Iteration:  4428charge 0 multiplicity 1
 O         0.306932         0.472755         0.901322
 C        -0.727070         1.021728         0.146894
 C        -0.710631         1.586904        -1.316157
 C        -2.010910         2.269078        -0.847038
 C        -3.000788         2.750249        -1.891971
 O        -3.412956         1.375390        -2.137694
 C        -2.862746         1.001731        -0.782987
 C        -1.885135        -0.014062        -0.094498
 C        -1.354643         2.446054         0.612398
 H         1.052643         1.059522         0.926935
 H         0.205900         2.160839        -1.483606
 H        -0.808680         0.980392        -2.219407
 H        -3.898708         3.317451        -1.596696
 H        -2.718103         3.120022        -2.910914
 H        -3.703018         1.212396        -0.119800
 H        -2.278283        -0.339474         0.840421
 H        -1.415236        -0.854739        -0.596625
 H        -0.667031         3.237319         0.773556
 H        -2.066649         2.388248         1.469559
