19
Iteration:   626charge 0 multiplicity 1
 O         0.341105         0.465602         0.801355
 C        -0.698280         1.038731         0.105482
 C        -0.639656         1.762874        -1.278403
 C        -2.034116         2.296662        -0.781888
 C        -3.081036         2.713461        -1.945242
 O        -3.344608         1.293343        -2.092631
 C        -2.871566         1.062810        -0.693675
 C        -1.946085         0.002824        -0.084904
 C        -1.352759         2.409626         0.601775
 H         0.330294        -0.508037         0.619955
 H         0.196958         2.404377        -1.386136
 H        -0.625804         1.119150        -2.156069
 H        -4.136212         3.240747        -1.775342
 H        -2.530260         3.183317        -2.862048
 H        -3.671352         1.147078         0.084539
 H        -2.216043        -0.463582         0.918490
 H        -1.740653        -0.881956        -0.748727
 H        -0.772911         3.402739         0.552130
 H        -1.905618         2.369296         1.558203
