19
Iteration:  4151
 O         0.264404         0.392405         0.807729
 C        -0.793502         1.012601         0.057050
 C        -0.640927         1.641060        -1.267536
 C        -2.045985         2.322729        -0.779120
 C        -3.017266         2.703703        -1.959083
 O        -3.314880         1.198527        -2.052242
 C        -2.899718         1.114445        -0.671931
 C        -1.901735         0.073413        -0.072040
 C        -1.346556         2.515705         0.604325
 H         1.092935         0.896771         0.622043
 H         0.170406         2.371758        -1.462245
 H        -0.746878         1.046292        -2.200514
 H        -3.876289         3.210137        -1.652124
 H        -2.556218         2.973308        -2.909692
 H        -3.784255         1.317909        -0.117722
 H        -2.246585        -0.425503         0.855437
 H        -1.745131        -0.732596        -0.819187
 H        -0.409026         3.051941         0.407801
 H        -1.960512         2.818121         1.475715
