19
Iteration:  1743charge 0 multiplicity 1
 O         0.415985         0.615289         0.860758
 C        -0.719255         1.062657         0.076408
 C        -0.682186         1.493643        -1.349305
 C        -1.981567         2.202581        -0.868133
 C        -2.903246         2.736254        -1.868066
 O        -3.500949         1.369040        -2.124510
 C        -2.969017         1.087614        -0.643744
 C        -1.997870         0.062964        -0.019940
 C        -1.259318         2.360650         0.468807
 H         0.262358        -0.333310         1.174257
 H         0.222609         2.120891        -1.417072
 H        -0.781175         0.740592        -2.174472
 H        -3.632368         3.418145        -1.404586
 H        -2.690211         3.091342        -2.888131
 H        -3.738925         1.329883         0.004340
 H        -2.286997        -0.275156         1.112807
 H        -1.869269        -0.895525        -0.558777
 H        -0.639639         3.111497         0.675168
 H        -1.948083         2.471088         1.359303
