19
Iteration:  3038
 O         0.471300         0.573120         0.826872
 C        -0.659745         0.982176         0.109788
 C        -0.634373         1.485979        -1.324918
 C        -2.000464         2.180925        -0.848866
 C        -2.901000         2.755482        -1.974800
 O        -3.526925         1.423306        -2.056305
 C        -2.968178         1.104553        -0.651724
 C        -2.019147         0.017593        -0.088241
 C        -1.357935         2.322859         0.512436
 H         0.396439         1.115647         1.683938
 H         0.228431         2.158622        -1.506295
 H        -0.711361         0.735146        -2.150975
 H        -3.598566         3.502117        -1.586272
 H        -2.489731         3.217551        -2.879248
 H        -3.848685         1.304144         0.036137
 H        -2.480186        -0.316189         1.033275
 H        -1.873247        -0.839757        -0.751313
 H        -0.741709         3.147794         0.774727
 H        -2.110559         2.430752         1.427104
