19
Iteration:  2159charge 0 multiplicity 1
 O         0.322980         0.384309         0.836065
 C        -0.702922         1.014151         0.078528
 C        -0.662984         1.656900        -1.435812
 C        -1.890345         2.337869        -0.923655
 C        -3.077307         2.680934        -2.013336
 O        -3.461372         1.277404        -1.947879
 C        -2.828113         1.145370        -0.586225
 C        -1.959490         0.044796        -0.019368
 C        -1.277147         2.514703         0.529365
 H        -0.121559         0.007899         1.651834
 H         0.258194         2.148086        -1.696697
 H        -0.784023         0.858498        -2.173386
 H        -3.965982         3.307176        -1.750650
 H        -2.818790         2.908811        -3.070702
 H        -3.556627         1.554230         0.256483
 H        -2.418620        -0.357090         0.916302
 H        -1.827264        -0.849529        -0.651587
 H        -0.487415         3.238196         0.488664
 H        -1.891797         2.456470         1.485180
