19
Iteration:  2610
 O         0.338305         0.422740         0.700120
 C        -0.776435         1.075882         0.143216
 C        -0.743323         1.530131        -1.341702
 C        -1.952592         2.329929        -0.855511
 C        -3.048844         2.660422        -1.988511
 O        -3.360445         1.265079        -2.019656
 C        -2.916973         1.134289        -0.647767
 C        -1.927411         0.180727         0.037766
 C        -1.229257         2.464147         0.559772
 H        -0.016790        -0.318717         1.212888
 H         0.204311         2.224313        -1.327075
 H        -0.759192         0.809845        -2.230783
 H        -3.993433         3.170278        -1.641410
 H        -2.554563         2.937491        -2.980920
 H        -3.741515         1.272297         0.124351
 H        -2.389509        -0.161117         1.012981
 H        -1.681392        -0.712094        -0.590701
 H        -0.385294         3.164895         0.462133
 H        -1.799941         2.699888         1.401353
