19
Iteration:   467
 O         0.408401         0.523503         0.784299
 C        -0.802066         0.992613         0.162665
 C        -0.665026         1.726583        -1.289997
 C        -1.993613         2.297136        -0.826996
 C        -3.010964         2.750757        -1.914816
 O        -3.353083         1.356332        -2.132150
 C        -2.881360         1.048830        -0.684668
 C        -1.903508         0.004618        -0.097179
 C        -1.470374         2.284495         0.667699
 H         1.098756         0.221971         0.130000
 H         0.158867         2.431497        -1.258382
 H        -0.586885         1.041523        -2.159260
 H        -3.866975         3.390668        -1.430562
 H        -2.548022         3.173764        -2.802026
 H        -3.848922         1.088567        -0.196650
 H        -2.402006        -0.425577         0.723941
 H        -1.570161        -0.867173        -0.631133
 H        -0.800430         2.970636         0.952494
 H        -2.407232         2.236506         1.259694
