19
Iteration:  2356charge 0 multiplicity 1
 O         0.460052         0.462202         0.766404
 C        -0.705245         1.027280         0.141072
 C        -0.655390         1.457116        -1.289386
 C        -1.920991         2.243690        -0.893281
 C        -2.924169         2.706375        -1.916560
 O        -3.520438         1.330262        -1.973787
 C        -2.970941         1.155799        -0.584488
 C        -2.055463         0.054535        -0.091184
 C        -1.317503         2.534287         0.419892
 H         0.345116         0.494670         1.697593
 H         0.197363         2.212855        -1.468936
 H        -0.777460         0.668850        -2.101348
 H        -3.707233         3.397760        -1.563095
 H        -2.565649         2.806913        -2.996749
 H        -3.679059         1.440602         0.159283
 H        -2.544938        -0.553236         0.700036
 H        -1.764132        -0.637916        -0.975458
 H        -0.588494         3.303139         0.380647
 H        -1.963562         2.633205         1.274796
