19
Iteration:  3920charge 0 multiplicity 1
 O         0.340250         0.427450         0.810543
 C        -0.776172         1.043288         0.168492
 C        -0.624979         1.502388        -1.248848
 C        -1.890987         2.254304        -0.937883
 C        -3.146704         2.673122        -1.952458
 O        -3.441175         1.298235        -2.035789
 C        -2.868824         1.111115        -0.679840
 C        -1.873872         0.089293        -0.012749
 C        -1.312122         2.555718         0.398302
 H         0.149861         0.321263         1.804105
 H         0.177252         2.170200        -1.380846
 H        -0.555778         0.687789        -1.997640
 H        -3.824558         3.356904        -1.196022
 H        -2.878692         3.063374        -2.935647
 H        -3.751034         1.502405         0.055157
 H        -2.365718        -0.370317         0.787345
 H        -1.591419        -0.633012        -0.701931
 H        -0.411433         3.251423         0.398191
 H        -2.020835         2.879305         1.165919
