19
Iteration:  1789charge 0 multiplicity 1
 O         0.268547         0.466362         0.733433
 C        -0.787720         1.093789         0.117052
 C        -0.653842         1.534819        -1.303913
 C        -1.929645         2.319937        -0.871119
 C        -2.966741         2.647605        -1.905974
 O        -3.358167         1.197543        -2.053627
 C        -2.939386         1.176198        -0.624435
 C        -1.992476         0.146129        -0.004177
 C        -1.228791         2.496505         0.560758
 H         0.463118        -0.451894         0.585624
 H         0.078943         2.368391        -1.508375
 H        -0.836600         0.794838        -2.153872
 H        -3.941906         3.060792        -1.587942
 H        -2.763777         3.188115        -2.831705
 H        -3.748530         1.450233        -0.025893
 H        -2.323714        -0.566905         0.908130
 H        -1.867467        -0.681343        -0.759589
 H        -0.418521         3.176040         0.613142
 H        -1.834466         2.658274         1.487720
