19
Iteration:   107
 O         0.433781         0.592463         0.606679
 C        -0.797423         1.067332         0.205716
 C        -0.626275         1.695236        -1.197333
 C        -2.039609         2.256394        -0.736508
 C        -2.936462         2.668498        -1.843104
 O        -3.385405         1.321652        -2.170270
 C        -2.951161         0.973240        -0.781063
 C        -1.927038        -0.026458        -0.145005
 C        -1.421479         2.455804         0.704838
 H         0.326019        -0.275430         1.076702
 H         0.191271         2.414998        -1.190307
 H        -0.675624         0.954843        -1.942760
 H        -3.774126         3.354891        -1.487828
 H        -2.452290         3.141451        -2.657478
 H        -3.840125         0.851299        -0.118233
 H        -2.423881        -0.551403         0.727588
 H        -1.519166        -0.817602        -0.813121
 H        -0.682408         3.195362         0.624284
 H        -2.139767         2.628426         1.519804
