19
Iteration:  4817
 O         0.432696         0.555666         0.807699
 C        -0.755123         0.969743         0.148570
 C        -0.672022         1.564156        -1.248108
 C        -2.003514         2.219420        -0.847345
 C        -2.911147         2.826661        -1.961407
 O        -3.439674         1.338369        -2.112941
 C        -2.874903         1.072450        -0.724612
 C        -1.897592        -0.038628        -0.086490
 C        -1.543733         2.372282         0.611222
 H         1.085640         1.252286         0.897159
 H        -0.066988         2.524965        -1.409057
 H        -0.641199         0.710455        -1.966610
 H        -3.780684         3.596514        -1.915203
 H        -2.367250         3.035492        -2.911001
 H        -3.848509         1.220269        -0.054842
 H        -2.444784        -0.291197         0.840127
 H        -1.660167        -0.983341        -0.463127
 H        -0.741565         3.121422         0.866655
 H        -2.139413         2.267520         1.515716
