19
Iteration:  1408
 O         0.381165         0.434580         0.697472
 C        -0.740081         1.041212         0.176639
 C        -0.582777         1.611286        -1.268759
 C        -1.963657         2.328141        -0.882252
 C        -2.991649         2.717136        -1.933148
 O        -3.405855         1.261721        -2.050225
 C        -2.867864         1.114750        -0.642792
 C        -1.959313         0.042326        -0.127172
 C        -1.455904         2.466494         0.583494
 H         0.201738         0.333552         1.682692
 H         0.179719         2.366145        -1.234677
 H        -0.437640         0.871779        -2.043358
 H        -3.832508         3.231305        -1.429746
 H        -2.724226         3.100800        -2.913243
 H        -3.735542         1.371849        -0.036255
 H        -2.357705        -0.608120         0.780905
 H        -1.691360        -0.696665        -0.979212
 H        -0.765985         3.262100         0.949067
 H        -2.313607         2.365349         1.208836
