19
Iteration:  2545
 O         0.437442         0.486217         0.823407
 C        -0.737220         0.947284         0.106048
 C        -0.692610         1.501901        -1.391115
 C        -1.935628         2.273242        -0.881522
 C        -2.978051         2.715636        -2.045997
 O        -3.646806         1.424219        -1.998764
 C        -2.812202         1.091049        -0.614783
 C        -1.936878        -0.001357        -0.021172
 C        -1.312037         2.436988         0.559768
 H         0.410338         0.920555         1.741027
 H         0.263156         2.128195        -1.406203
 H        -0.802469         0.743598        -2.213291
 H        -3.656396         3.552379        -1.882673
 H        -2.565396         2.859961        -3.056305
 H        -3.663995         1.496152         0.041321
 H        -2.380952        -0.265890         0.996773
 H        -1.602223        -0.818692        -0.693538
 H        -0.434168         3.109059         0.658578
 H        -1.979894         2.723021         1.304502
