19
Iteration:  2129charge 0 multiplicity 1
 O         0.347873         0.428162         0.720961
 C        -0.753103         1.063883         0.135114
 C        -0.665359         1.530429        -1.338835
 C        -1.952497         2.266506        -0.911359
 C        -3.029279         2.653992        -1.849414
 O        -3.367596         1.263649        -2.115085
 C        -2.960326         1.104279        -0.577597
 C        -1.991191         0.160005         0.057128
 C        -1.250501         2.529085         0.454270
 H         0.093259        -0.159880         1.461286
 H         0.187402         2.180216        -1.491526
 H        -0.490448         0.685448        -1.956149
 H        -3.922364         3.275107        -1.416457
 H        -2.907195         3.251450        -2.718604
 H        -3.770249         1.491773        -0.042729
 H        -2.394012        -0.152312         0.980974
 H        -1.832621        -0.671370        -0.710818
 H        -0.271049         3.242966         0.287474
 H        -1.760005         2.682843         1.494023
