19
Iteration:  4231charge 0 multiplicity 1
 O         0.407810         0.494659         0.832095
 C        -0.795980         1.030527         0.173641
 C        -0.672314         1.639479        -1.269143
 C        -2.022197         2.279296        -0.807306
 C        -2.811271         2.655859        -2.037759
 O        -3.526525         1.280057        -2.059574
 C        -2.941899         1.125752        -0.536681
 C        -1.909288         0.022206        -0.196272
 C        -1.393704         2.363183         0.547102
 H         1.126496         1.079768         0.560402
 H         0.084917         2.440549        -1.158337
 H        -0.831950         0.909541        -2.021241
 H        -3.462639         3.494991        -1.854378
 H        -2.310477         2.851464        -3.027466
 H        -3.763426         1.421172         0.062790
 H        -2.419923        -0.562854         0.543099
 H        -1.771838        -0.585941        -1.017563
 H        -0.650211         3.141224         0.855529
 H        -2.159448         2.606769         1.440078
