19
Iteration:   209
 O         0.477520         0.579801         0.888913
 C        -0.719452         0.987797         0.145783
 C        -0.560402         1.720297        -1.225343
 C        -1.979465         2.243533        -0.818455
 C        -2.977622         2.758520        -1.924633
 O        -3.590155         1.397477        -2.101249
 C        -2.901722         0.998322        -0.778250
 C        -1.836237        -0.050990        -0.232632
 C        -1.576172         2.363522         0.681648
 H         0.706037        -0.274880         0.529190
 H         0.286240         2.343847        -1.381671
 H        -0.582371         1.162527        -2.190725
 H        -3.769228         3.434513        -1.538254
 H        -2.555962         3.196898        -2.908009
 H        -3.658087         1.093210         0.037107
 H        -2.193131        -0.719227         0.544549
 H        -1.374295        -0.704004        -1.023642
 H        -0.909519         3.144027         0.927545
 H        -2.152027         2.040029         1.449889
