19
Iteration:  4871
 O         0.262852         0.387195         0.829083
 C        -0.802732         0.997936         0.154697
 C        -0.665194         1.689837        -1.272391
 C        -1.941210         2.368962        -0.879434
 C        -3.105231         2.639662        -1.908640
 O        -3.254507         1.235341        -2.038439
 C        -2.872729         1.164985        -0.714948
 C        -1.896222         0.069898        -0.159383
 C        -1.390680         2.487610         0.587044
 H         1.160127         0.771170         0.986244
 H         0.192350         2.456347        -1.360850
 H        -0.584905         0.831356        -1.960963
 H        -4.141690         2.991778        -1.592465
 H        -2.833525         3.100804        -2.875565
 H        -3.877755         1.064396        -0.116286
 H        -2.369297        -0.635900         0.677564
 H        -1.626004        -0.625002        -0.938332
 H        -0.473223         3.137375         0.680995
 H        -2.103992         2.514303         1.388943
