19
Iteration:  2790
 O         0.445376         0.542214         0.695677
 C        -0.710116         1.043135         0.144994
 C        -0.700243         1.472560        -1.284351
 C        -1.976889         2.301213        -0.887647
 C        -2.968936         2.726088        -2.044481
 O        -3.454164         1.304624        -2.044353
 C        -2.992822         1.153281        -0.644610
 C        -2.000805         0.098338         0.050702
 C        -1.258100         2.391122         0.616433
 H         0.281046        -0.124901         1.403377
 H         0.061834         2.163247        -1.674710
 H        -0.761119         0.819086        -2.166962
 H        -3.778827         3.450693        -1.715869
 H        -2.369950         3.093531        -2.847589
 H        -3.893513         1.243112        -0.144607
 H        -2.425533        -0.431629         1.030837
 H        -1.772473        -0.831846        -0.556789
 H        -0.464268         3.081635         0.675813
 H        -2.050665         2.361541         1.380211
