19
Iteration:  4887charge 0 multiplicity 1
 O         0.220682         0.338522         0.813048
 C        -0.752740         1.100887         0.120743
 C        -0.555971         1.722802        -1.279577
 C        -1.978726         2.334840        -0.858398
 C        -3.054071         2.661431        -1.967337
 O        -3.329301         1.179099        -2.076819
 C        -2.839719         1.085290        -0.621951
 C        -1.945758         0.044184        -0.151038
 C        -1.406692         2.473046         0.616572
 H         0.916067         0.974374         0.767430
 H         0.255579         2.455567        -1.231044
 H        -0.659179         1.149138        -2.228072
 H        -3.800544         3.269654        -1.385981
 H        -2.853935         3.244386        -2.884899
 H        -3.627359         1.514243        -0.047918
 H        -2.187945        -0.452492         0.728837
 H        -1.597755        -0.732792        -0.863149
 H        -0.712257         3.286873         0.856188
 H        -2.206050         2.520248         1.421186
