19
Iteration:  3535
 O         0.421721         0.633499         0.798727
 C        -0.753320         1.034299         0.194100
 C        -0.710719         1.489693        -1.315995
 C        -1.987649         2.202407        -0.903979
 C        -2.965634         2.729294        -2.018024
 O        -3.413836         1.365008        -2.077942
 C        -2.929232         1.088341        -0.632154
 C        -2.052556        -0.019705        -0.004113
 C        -1.281197         2.483376         0.556492
 H         0.527570        -0.323222         0.629643
 H         0.126904         2.167402        -1.427672
 H        -0.715114         0.645935        -1.928098
 H        -3.672575         3.416450        -1.616127
 H        -2.575583         2.991809        -2.956710
 H        -3.887432         1.208555         0.019661
 H        -2.505233        -0.386445         0.999336
 H        -1.577626        -0.815957        -0.627166
 H        -0.326200         3.062736         0.641191
 H        -1.970145         2.571165         1.437375
