19
Iteration:  4198
 O         0.328118         0.547957         0.883866
 C        -0.715768         1.007803         0.139048
 C        -0.644282         1.545302        -1.314237
 C        -1.966992         2.293455        -0.844511
 C        -3.020289         2.759325        -1.902197
 O        -3.394883         1.330018        -2.118307
 C        -2.883531         1.059371        -0.670765
 C        -1.962318         0.013791        -0.088024
 C        -1.398622         2.390721         0.520114
 H         1.047700         0.801279         0.336557
 H         0.280290         2.139558        -1.511897
 H        -0.557911         0.842983        -2.111952
 H        -3.818318         3.205651        -1.347782
 H        -2.665245         3.259598        -2.860939
 H        -3.763492         1.231486        -0.114502
 H        -2.435121        -0.110303         0.885969
 H        -1.800034        -0.951008        -0.415817
 H        -0.513506         3.039874         0.680473
 H        -2.219478         2.252968         1.360299
