19
Iteration:  4942
 O         0.420678         0.577402         0.828315
 C        -0.804030         1.018988         0.173970
 C        -0.708436         1.517792        -1.228966
 C        -1.996904         2.304467        -0.808603
 C        -2.921771         2.716114        -1.939091
 O        -3.437108         1.335991        -2.075436
 C        -2.905730         1.083861        -0.745453
 C        -1.924271        -0.008739        -0.164492
 C        -1.430425         2.336531         0.595376
 H         1.008557         1.382430         0.747887
 H        -0.006429         2.354856        -1.388944
 H        -0.667299         0.747108        -2.030839
 H        -3.606980         3.618043        -1.734028
 H        -2.267683         2.982594        -2.812357
 H        -3.827410         1.309048        -0.168508
 H        -2.345537        -0.522869         0.626461
 H        -1.552734        -0.790198        -0.847106
 H        -0.505485         2.860196         0.875031
 H        -2.284289         2.409280         1.317945
