19
Iteration:  3729
 O         0.382108         0.528118         0.934156
 C        -0.718346         0.955764         0.080247
 C        -0.572372         1.514274        -1.295687
 C        -1.895844         2.328124        -0.931087
 C        -3.023943         2.639854        -2.104447
 O        -3.492675         1.324415        -1.938134
 C        -2.933976         1.203132        -0.612952
 C        -2.049539         0.083514        -0.049853
 C        -1.374684         2.406543         0.530354
 H         1.200811         0.551013         0.420273
 H         0.298642         2.162303        -1.597333
 H        -0.517706         0.736161        -2.100934
 H        -3.784372         3.479086        -2.018329
 H        -2.540106         2.830644        -3.109654
 H        -3.792913         1.396694         0.125530
 H        -2.207983        -0.303605         0.872321
 H        -1.968777        -0.803214        -0.696760
 H        -0.608674         3.160065         0.740107
 H        -2.104008         2.174741         1.262478
