19
Iteration:  2975
 O         0.376416         0.291568         0.752355
 C        -0.703392         1.021798         0.150694
 C        -0.684887         1.720560        -1.334407
 C        -2.043180         2.384558        -0.820672
 C        -2.983194         2.687410        -2.071882
 O        -3.339558         1.190109        -1.986683
 C        -2.934681         1.164262        -0.580574
 C        -1.978018         0.125022        -0.033956
 C        -1.324562         2.522126         0.551185
 H         0.142432        -0.544125         1.193178
 H         0.245298         2.361134        -1.446402
 H        -0.634120         1.053065        -2.273330
 H        -3.894883         3.170872        -1.708448
 H        -2.595810         3.043476        -2.996822
 H        -3.815274         1.366062         0.025975
 H        -2.306580        -0.400441         0.770458
 H        -1.852100        -0.624327        -0.756162
 H        -0.597885         3.323414         0.451034
 H        -2.064750         2.628615         1.389367
