19
Iteration:  2377charge 0 multiplicity 1
 O         0.335370         0.376394         0.816328
 C        -0.747571         0.920309         0.123606
 C        -0.639545         1.585696        -1.408730
 C        -1.932240         2.309354        -0.938995
 C        -3.050060         2.757139        -1.939216
 O        -3.478203         1.301039        -1.963182
 C        -2.856552         1.103967        -0.605671
 C        -1.958891         0.006967        -0.007205
 C        -1.284241         2.610730         0.415915
 H         0.192598         0.390918         1.804229
 H         0.252512         2.318729        -1.416643
 H        -0.645629         0.893158        -2.335313
 H        -3.804011         3.270747        -1.444716
 H        -2.786788         3.047455        -3.004424
 H        -3.603297         1.476278         0.140775
 H        -2.104963        -0.218742         1.042292
 H        -1.884120        -0.951514        -0.588306
 H        -0.373887         3.103299         0.457063
 H        -1.942220         2.891140         1.235073
