19
Iteration:  4513
 O         0.211931         0.295758         0.854584
 C        -0.698744         1.067621         0.157459
 C        -0.611119         1.826880        -1.370686
 C        -2.002779         2.332995        -0.770222
 C        -2.996829         2.630136        -1.944571
 O        -3.343800         1.204039        -2.084093
 C        -2.935765         1.056314        -0.672510
 C        -1.889261         0.065558        -0.178922
 C        -1.387949         2.508761         0.583155
 H         1.136309         0.592760         0.918561
 H        -0.006647         2.756334        -1.387284
 H        -0.615380         1.149243        -2.183445
 H        -3.880667         3.165605        -1.547411
 H        -2.601442         3.103510        -2.902351
 H        -3.869032         1.397609        -0.077824
 H        -2.178371        -0.297299         0.929383
 H        -1.604682        -0.919232        -0.659515
 H        -0.563660         3.256851         0.692373
 H        -2.054594         2.522851         1.465325
