19
Iteration:  2180
 O         0.369262         0.536622         0.730478
 C        -0.733449         1.029598         0.097503
 C        -0.617699         1.521869        -1.255510
 C        -1.926629         2.241260        -0.865539
 C        -2.876611         2.653297        -2.013366
 O        -3.568471         1.272322        -1.883646
 C        -3.002757         1.159983        -0.586517
 C        -1.974365         0.133514        -0.144274
 C        -1.271755         2.424890         0.487230
 H         0.129765         0.157266         1.544892
 H         0.264317         2.197412        -1.294022
 H        -0.484171         0.870356        -2.165845
 H        -3.594575         3.432595        -1.784218
 H        -2.531236         2.925661        -3.044270
 H        -3.730063         1.583616         0.222692
 H        -2.374019        -0.472733         0.738041
 H        -1.732661        -0.607894        -0.918140
 H        -0.460147         3.045722         0.506903
 H        -2.076640         2.548105         1.233037
