19
Iteration:  1965
 O         0.471000         0.544556         0.761881
 C        -0.771291         1.027646         0.175222
 C        -0.754859         1.438307        -1.322949
 C        -1.923624         2.246906        -0.879975
 C        -2.830466         2.666730        -2.052056
 O        -3.481197         1.316259        -1.972966
 C        -3.002012         1.143530        -0.565017
 C        -2.085748         0.129858        -0.009658
 C        -1.340998         2.433591         0.552122
 H         1.107182         0.439113         0.014258
 H         0.058852         2.202356        -1.549491
 H        -0.775258         0.692127        -2.146029
 H        -3.513682         3.522758        -1.920031
 H        -2.237381         2.846680        -2.932964
 H        -3.813082         1.475000         0.211214
 H        -2.430658        -0.305086         0.936478
 H        -1.805415        -0.683457        -0.778000
 H        -0.561502         3.206676         0.609861
 H        -1.975591         2.388158         1.390127
