19
Iteration:   211
 O         0.468960         0.591538         0.884913
 C        -0.738976         1.003603         0.144022
 C        -0.544311         1.710084        -1.211606
 C        -1.985555         2.252259        -0.821916
 C        -2.993803         2.762926        -1.917865
 O        -3.590606         1.389382        -2.096434
 C        -2.896932         1.002678        -0.777455
 C        -1.826716        -0.052776        -0.235002
 C        -1.551963         2.330336         0.668593
 H         0.716195        -0.347409         0.580720
 H         0.330018         2.404778        -1.400761
 H        -0.584960         1.193299        -2.241130
 H        -3.781151         3.441793        -1.577582
 H        -2.500709         3.185652        -2.905162
 H        -3.706921         1.120914        -0.013989
 H        -2.199064        -0.674855         0.582038
 H        -1.430185        -0.688974        -1.025397
 H        -0.815424         3.132987         0.983672
 H        -2.239843         2.032664         1.442841
