19
Iteration:  2769charge 0 multiplicity 1
 O         0.400630         0.473274         0.751821
 C        -0.826636         0.973257         0.093873
 C        -0.687586         1.555980        -1.305112
 C        -1.962332         2.282875        -0.896811
 C        -2.996154         2.696695        -1.840476
 O        -3.369540         1.295952        -2.051480
 C        -2.925268         1.115768        -0.649766
 C        -2.025965         0.064588        -0.038151
 C        -1.244023         2.521277         0.467709
 H         0.140799         0.309167         1.647044
 H         0.219207         2.112891        -1.492360
 H        -0.691425         0.768825        -2.046942
 H        -3.837462         3.216056        -1.352523
 H        -2.675016         3.139049        -2.766351
 H        -3.731360         1.489375        -0.036010
 H        -2.380183        -0.272166         1.048919
 H        -1.819070        -0.942052        -0.538299
 H        -0.411712         3.194245         0.265149
 H        -1.904637         2.746687         1.304254
