19
Iteration:   821charge 0 multiplicity 1
 O         0.402408         0.574526         0.821384
 C        -0.719793         1.000815         0.122910
 C        -0.662737         1.583779        -1.358432
 C        -1.962533         2.306259        -0.830970
 C        -3.037121         2.728203        -1.915872
 O        -3.343579         1.249183        -2.097969
 C        -2.952313         1.118403        -0.602789
 C        -2.056949         0.076887        -0.087562
 C        -1.338093         2.403149         0.590460
 H         0.747711        -0.296118         0.460419
 H         0.154583         2.372424        -1.423157
 H        -0.819899         0.880987        -2.267446
 H        -3.936764         3.364136        -1.698943
 H        -2.495713         3.045723        -2.794935
 H        -3.769693         1.285531         0.089970
 H        -2.362619        -0.481085         0.836882
 H        -1.854697        -0.722330        -0.863990
 H        -0.398618         3.091443         0.846809
 H        -2.061739         2.272462         1.450548
