19
Iteration:   996charge 0 multiplicity 1
 O         0.458209         0.604561         0.756637
 C        -0.735146         0.980276         0.072165
 C        -0.653529         1.513552        -1.378412
 C        -1.958964         2.253442        -0.856572
 C        -2.965890         2.703950        -1.937811
 O        -3.359602         1.327499        -2.013596
 C        -2.973588         1.105252        -0.633832
 C        -2.048921         0.032277        -0.043663
 C        -1.380300         2.409037         0.560986
 H         0.099963         0.232823         1.558805
 H         0.013904         2.311471        -1.563401
 H        -0.841208         0.866771        -2.227121
 H        -3.735942         3.304079        -1.484041
 H        -2.475242         3.157788        -2.768445
 H        -3.777634         1.266720         0.221009
 H        -2.484884        -0.282205         0.852432
 H        -1.795116        -0.685356        -0.714088
 H        -0.517457         3.043137         0.717180
 H        -2.072540         2.496105         1.339554
