19
Iteration:  4058
 O         0.306222         0.570353         0.907817
 C        -0.696910         1.044877         0.067190
 C        -0.663628         1.532780        -1.401325
 C        -1.949816         2.339791        -0.865751
 C        -3.108670         2.691181        -1.902664
 O        -3.366758         1.232426        -2.045212
 C        -2.818766         1.106432        -0.630812
 C        -1.979910         0.078189        -0.084617
 C        -1.297481         2.460186         0.512574
 H        -0.041186        -0.227791         1.308881
 H         0.270782         2.133669        -1.585111
 H        -0.648768         0.784949        -2.194797
 H        -3.914515         3.259436        -1.290551
 H        -2.940737         3.222942        -2.865417
 H        -3.737139         1.371679         0.045918
 H        -2.323005        -0.732817         0.610681
 H        -1.664911        -0.558436        -1.004947
 H        -0.409635         2.976846         0.757660
 H        -2.047918         2.486627         1.303471
