19
Iteration:  2482charge 0 multiplicity 1
 O         0.447805         0.398545         0.744804
 C        -0.697427         0.972906         0.136371
 C        -0.715488         1.568142        -1.359786
 C        -1.931404         2.311441        -0.935923
 C        -3.018105         2.720737        -2.007645
 O        -3.418824         1.247182        -1.948985
 C        -2.906202         1.204986        -0.636988
 C        -2.090756         0.066595        -0.013658
 C        -1.292999         2.468467         0.525518
 H         0.392941         0.600067         1.686619
 H         0.143249         2.160734        -1.507064
 H        -0.865373         0.923319        -2.200135
 H        -3.721465         3.552938        -1.588942
 H        -2.763000         3.042731        -3.002246
 H        -3.567005         1.341760         0.161689
 H        -2.508362        -0.175867         1.062849
 H        -1.864218        -0.843815        -0.533332
 H        -0.387734         3.123000         0.573489
 H        -2.102126         2.772173         1.334579
