19
Iteration:  1564
 O         0.205120         0.360169         0.752723
 C        -0.778003         1.042771         0.118660
 C        -0.564897         1.660051        -1.238919
 C        -1.899944         2.352477        -0.893601
 C        -2.988881         2.654863        -2.005494
 O        -3.449770         1.206033        -1.966809
 C        -2.885309         1.156345        -0.647777
 C        -1.988596         0.071874        -0.121027
 C        -1.300996         2.478794         0.608985
 H         0.950415         0.972989         0.978488
 H         0.283358         2.339691        -1.304160
 H        -0.481884         1.109144        -2.154759
 H        -3.852527         3.309145        -1.781663
 H        -2.587691         2.889836        -3.014718
 H        -3.730449         1.150640         0.236634
 H        -2.333642        -0.492903         0.856755
 H        -1.654137        -0.592893        -1.004485
 H        -0.476991         3.303811         0.534259
 H        -1.944511         2.531816         1.452596
