19
Iteration:  3352
 O         0.273083         0.201667         0.857110
 C        -0.703089         1.001770         0.098654
 C        -0.631094         1.718875        -1.293095
 C        -2.045895         2.429484        -0.856980
 C        -3.025787         2.680638        -1.972834
 O        -3.365363         1.186490        -2.079085
 C        -2.898416         1.132283        -0.648886
 C        -1.842455         0.086899        -0.057533
 C        -1.420307         2.606427         0.574845
 H         1.165031         0.341882         0.618672
 H         0.232067         2.513548        -1.413433
 H        -0.854723         1.207068        -2.254993
 H        -3.977314         3.116671        -1.583098
 H        -2.674734         3.133483        -2.954803
 H        -3.927695         1.264373        -0.004767
 H        -2.020810        -0.283524         0.985968
 H        -1.579388        -0.628896        -0.715785
 H        -0.577381         3.266887         0.474997
 H        -2.120201         2.565636         1.493251
