19
Iteration:   680charge 0 multiplicity 1
 O         0.385278         0.512998         0.810140
 C        -0.767662         0.981735         0.165566
 C        -0.718147         1.656384        -1.341991
 C        -1.974303         2.284483        -0.863528
 C        -2.884743         2.781222        -1.918516
 O        -3.454991         1.323653        -2.044035
 C        -2.910752         1.014078        -0.710856
 C        -1.947701        -0.027188        -0.092708
 C        -1.417480         2.401253         0.612675
 H         1.192496         0.979688         0.400165
 H        -0.020182         2.480835        -1.328474
 H        -0.626118         0.965846        -2.166931
 H        -3.797309         3.388004        -1.605413
 H        -2.340596         3.128154        -2.851398
 H        -3.769372         1.099264         0.096118
 H        -2.390150        -0.477997         0.861826
 H        -1.547778        -0.938914        -0.637207
 H        -0.544188         3.094885         0.709020
 H        -2.209733         2.383798         1.280422
