19
Iteration:  1341charge 0 multiplicity 1
 O         0.409448         0.522670         0.761550
 C        -0.763125         1.013122         0.141628
 C        -0.684667         1.570562        -1.247466
 C        -1.985183         2.289203        -0.849582
 C        -2.987229         2.730848        -1.915929
 O        -3.413492         1.292681        -2.078014
 C        -2.891063         1.076155        -0.740953
 C        -1.901442         0.046004        -0.099514
 C        -1.380353         2.489839         0.581791
 H         0.128286        -0.239912         1.222774
 H         0.068918         2.319345        -1.364463
 H        -0.733549         0.789534        -1.983355
 H        -3.803012         3.322063        -1.458903
 H        -2.479915         3.149338        -2.780835
 H        -3.684449         1.059941        -0.047510
 H        -2.498351        -0.391167         0.843569
 H        -1.556730        -0.790685        -0.766313
 H        -0.698508         3.269852         0.790088
 H        -2.168392         2.478528         1.383324
