19
Iteration:  3974
 O         0.415329         0.543305         0.732959
 C        -0.781163         0.975643         0.116506
 C        -0.668487         1.551619        -1.334455
 C        -1.926331         2.318340        -0.814816
 C        -2.948843         2.659834        -2.103874
 O        -3.407128         1.277022        -2.066932
 C        -2.985749         1.154849        -0.557006
 C        -2.042068        -0.044643         0.024041
 C        -1.325838         2.442676         0.611834
 H         0.830146         1.360897         1.128934
 H         0.216266         2.176743        -1.379151
 H        -0.821207         0.819028        -2.193025
 H        -3.772242         3.397387        -1.887391
 H        -2.470640         2.877467        -3.043358
 H        -3.772160         1.524968         0.126889
 H        -2.470246        -0.336495         0.948455
 H        -1.799623        -0.780333        -0.711399
 H        -0.529121         3.236052         0.807150
 H        -2.013427         2.487897         1.458197
