19
Iteration:   464charge 0 multiplicity 1
 O         0.423491         0.521472         0.793157
 C        -0.796201         1.018184         0.162247
 C        -0.691859         1.719337        -1.276501
 C        -1.991038         2.315489        -0.803090
 C        -2.996805         2.733479        -1.924141
 O        -3.371692         1.374831        -2.140537
 C        -2.894674         1.033996        -0.688464
 C        -1.886284        -0.012791        -0.114730
 C        -1.474059         2.269189         0.652021
 H         1.024284         0.196495         0.167647
 H         0.189872         2.423624        -1.288870
 H        -0.606320         1.045106        -2.176181
 H        -3.777860         3.393682        -1.550799
 H        -2.612085         3.239779        -2.909814
 H        -3.862973         1.050662        -0.185188
 H        -2.442070        -0.345277         0.815683
 H        -1.524393        -0.919220        -0.597401
 H        -0.750425         3.029506         1.060544
 H        -2.307414         2.222062         1.356644
