19
Iteration:   556
 O         0.405672         0.552129         0.717445
 C        -0.762290         0.979957         0.133171
 C        -0.592896         1.703154        -1.239613
 C        -1.984472         2.281383        -0.869523
 C        -2.938366         2.745663        -1.898367
 O        -3.460930         1.311101        -2.053198
 C        -2.886345         1.083095        -0.688176
 C        -1.986278        -0.076078        -0.183574
 C        -1.444444         2.312295         0.633891
 H         0.636791         1.093017         1.544048
 H         0.261614         2.406134        -1.181402
 H        -0.474187         1.179550        -2.186002
 H        -3.781980         3.428323        -1.457696
 H        -2.525581         3.147163        -2.785058
 H        -3.706692         1.346626         0.063429
 H        -2.417401        -0.678162         0.624898
 H        -1.655409        -0.878990        -0.863233
 H        -0.777680         3.128918         0.686677
 H        -2.148064         2.253797         1.486386
