19
Iteration:  1474charge 0 multiplicity 1
 O         0.483538         0.626354         0.776451
 C        -0.736171         0.996888         0.116587
 C        -0.677031         1.545274        -1.285692
 C        -1.978206         2.312895        -0.819256
 C        -2.905770         2.720725        -1.928645
 O        -3.351795         1.281980        -2.086343
 C        -2.974693         1.135462        -0.658309
 C        -2.060236         0.047055        -0.112548
 C        -1.438497         2.347330         0.622540
 H         0.507853        -0.296123         0.967327
 H        -0.025724         2.354251        -1.550238
 H        -0.742764         0.834490        -2.092141
 H        -3.796421         3.293685        -1.583013
 H        -2.368793         3.151053        -2.773980
 H        -3.973920         1.323878        -0.019338
 H        -2.404639        -0.402433         0.866564
 H        -1.903345        -0.790181        -0.879315
 H        -0.556173         3.043033         0.690464
 H        -2.201540         2.291257         1.336728
