19
Iteration:    42
 O         0.243815         0.375794         0.855970
 C        -0.714121         1.041535         0.144830
 C        -0.558449         1.713412        -1.265196
 C        -1.951910         2.304364        -0.903431
 C        -3.081084         2.732208        -1.852823
 O        -3.488034         1.299182        -2.020929
 C        -2.819684         1.008293        -0.681403
 C        -1.842777        -0.016755        -0.198478
 C        -1.400443         2.462351         0.514534
 H         1.036126         1.023709         0.810270
 H         0.152755         2.551938        -1.146470
 H        -0.401234         1.142378        -2.166743
 H        -3.951683         3.309503        -1.362344
 H        -2.972836         3.232907        -2.799241
 H        -3.687672         1.194667        -0.025864
 H        -2.133233        -0.630901         0.717658
 H        -1.473148        -0.754583        -0.942297
 H        -0.643492         3.170476         0.463709
 H        -2.215179         2.601357         1.218726
