19
Iteration:  1016
 O         0.450644         0.578252         0.737451
 C        -0.722784         1.016471         0.145423
 C        -0.721289         1.556613        -1.261789
 C        -1.998132         2.280927        -0.848514
 C        -2.848684         2.756047        -2.000002
 O        -3.552867         1.285194        -2.025668
 C        -2.946230         1.123983        -0.635028
 C        -1.932459         0.006148        -0.087699
 C        -1.359265         2.416093         0.560862
 H         0.293296        -0.176104         1.416762
 H         0.137373         2.231946        -1.439256
 H        -0.762427         0.745491        -1.992354
 H        -3.597016         3.496798        -1.893536
 H        -2.336479         2.791225        -2.920424
 H        -3.685483         1.235184         0.201408
 H        -2.337622        -0.405875         0.846045
 H        -1.685465        -0.663544        -0.914270
 H        -0.652114         3.197843         0.605469
 H        -2.006591         2.458860         1.441120
