19
Iteration:  4501
 O         0.210011         0.290863         0.841961
 C        -0.729517         1.120578         0.095943
 C        -0.655478         1.770243        -1.301011
 C        -2.049993         2.289140        -0.867116
 C        -2.990960         2.691165        -1.986156
 O        -3.344090         1.253882        -2.023731
 C        -2.868469         1.014000        -0.702992
 C        -1.885241         0.094225        -0.089061
 C        -1.353786         2.467532         0.647573
 H         1.047384         0.866057         0.897907
 H         0.113010         2.582252        -1.479911
 H        -0.599016         1.206395        -2.208934
 H        -3.847956         3.349300        -1.829649
 H        -2.514625         2.942788        -2.966380
 H        -3.759177         0.807074         0.020621
 H        -2.382466        -0.510411         0.815383
 H        -1.494401        -0.570919        -0.893082
 H        -0.647213         3.391019         0.658816
 H        -1.987574         2.444313         1.552987
