19
Iteration:   746charge 0 multiplicity 1
 O         0.327128         0.493026         0.753150
 C        -0.794194         1.027184         0.067897
 C        -0.572781         1.638348        -1.309621
 C        -1.970297         2.363283        -0.882012
 C        -3.077629         2.687944        -1.917532
 O        -3.393629         1.252670        -1.996272
 C        -2.847602         1.139325        -0.645693
 C        -1.964765         0.009068        -0.167088
 C        -1.311037         2.412993         0.610818
 H         0.054168         0.469138         1.665497
 H         0.278185         2.274698        -1.311754
 H        -0.589646         0.858771        -2.065798
 H        -3.919898         3.208747        -1.588016
 H        -2.599813         3.098566        -2.784741
 H        -3.584063         1.174126         0.212796
 H        -2.340272        -0.513606         0.747965
 H        -1.798463        -0.847681        -0.905031
 H        -0.441864         3.098435         0.821590
 H        -2.145121         2.507610         1.230684
