19
Iteration:    76
 O         0.405769         0.640721         0.928462
 C        -0.679838         0.964262         0.095726
 C        -0.687587         1.705813        -1.353844
 C        -1.988458         2.301292        -0.817165
 C        -2.998879         2.694563        -1.963362
 O        -3.418887         1.346081        -2.061524
 C        -2.928905         1.105530        -0.625153
 C        -1.925289        -0.029735        -0.212135
 C        -1.413521         2.236358         0.638639
 H         1.083305         0.091832         0.457787
 H         0.078769         2.465405        -1.496673
 H        -0.763667         1.088691        -2.241344
 H        -3.836419         3.357336        -1.567881
 H        -2.530653         3.016322        -2.890610
 H        -3.795696         1.117433         0.073122
 H        -2.299007        -0.608893         0.659929
 H        -1.801669        -0.657357        -1.121460
 H        -0.862180         2.993959         0.999982
 H        -2.203929         2.212447         1.332562
