19
Iteration:  4712
 O         0.404823         0.600024         0.792405
 C        -0.805395         0.949451         0.123228
 C        -0.663876         1.571127        -1.254640
 C        -1.958711         2.238839        -0.833601
 C        -2.945437         2.711855        -1.931194
 O        -3.368228         1.370541        -2.101043
 C        -2.876066         1.077924        -0.666997
 C        -1.996828        -0.052172        -0.128597
 C        -1.433722         2.371531         0.620684
 H         0.834239         1.462392         1.045787
 H         0.024259         2.341522        -1.171279
 H        -0.412078         0.925461        -2.087927
 H        -3.838028         3.184981        -1.630731
 H        -2.660859         3.136302        -2.865844
 H        -3.779760         1.338776        -0.087495
 H        -2.467044        -0.403688         0.747825
 H        -1.762222        -0.870225        -0.943773
 H        -0.659175         3.063480         0.731492
 H        -2.313730         2.461062         1.274159
