19
Iteration:  4394charge 0 multiplicity 1
 O         0.191891         0.323096         0.813146
 C        -0.765453         1.048358         0.084091
 C        -0.587994         1.715174        -1.280654
 C        -1.919985         2.340509        -0.825919
 C        -3.036239         2.610314        -1.946730
 O        -3.289285         1.227551        -2.050449
 C        -2.983988         1.104008        -0.621947
 C        -1.900211         0.067914        -0.162570
 C        -1.352512         2.551566         0.586611
 H         1.004117         0.879821         0.886981
 H         0.096163         2.544876        -0.988650
 H        -0.631709         1.258028        -2.237735
 H        -3.976625         3.101424        -1.591584
 H        -2.795652         2.879785        -3.058043
 H        -3.684679         1.193608         0.186838
 H        -2.167693        -0.607240         0.687495
 H        -1.680049        -0.595812        -0.987861
 H        -0.636135         3.302052         0.664527
 H        -2.027898         2.565365         1.461880
