19
Iteration:  1069charge 0 multiplicity 1
 O         0.343695         0.411728         0.770450
 C        -0.762720         1.035126         0.116056
 C        -0.596500         1.648442        -1.416411
 C        -1.899080         2.283519        -0.919570
 C        -2.976675         2.703328        -1.951233
 O        -3.398200         1.208659        -1.939869
 C        -2.946966         1.173221        -0.615489
 C        -1.960165         0.112823        -0.110775
 C        -1.394373         2.461292         0.577228
 H         0.151435         0.113749         1.742098
 H         0.228705         2.426353        -1.444777
 H        -0.546488         0.948179        -2.272996
 H        -3.889232         3.182179        -1.490724
 H        -2.781468         3.037325        -2.981999
 H        -3.583178         1.436076         0.112974
 H        -2.287007        -0.430816         0.876316
 H        -1.727758        -0.633968        -0.989357
 H        -0.611855         3.170020         0.837175
 H        -2.252120         2.405214         1.381641
