19
Iteration:  4089charge 0 multiplicity 1
 O         0.427942         0.512563         0.756982
 C        -0.735080         1.050814         0.195761
 C        -0.606505         1.627822        -1.303266
 C        -1.989668         2.176240        -0.890071
 C        -2.960047         2.706671        -2.014796
 O        -3.535142         1.386967        -2.025963
 C        -2.891027         0.999498        -0.735226
 C        -1.956518        -0.004916        -0.031218
 C        -1.399025         2.436266         0.558838
 H         0.438995         0.691684         1.741798
 H         0.088774         2.478620        -1.291283
 H        -0.509118         0.850614        -2.010447
 H        -3.642517         3.496502        -1.438137
 H        -2.587010         2.920752        -3.079905
 H        -3.732306         1.187894         0.052902
 H        -2.423330        -0.468288         0.836551
 H        -1.541859        -0.707946        -0.696857
 H        -0.470916         3.022328         0.635179
 H        -2.066660         2.819780         1.406773
