19
Iteration:  2628
 O         0.344879         0.382125         0.786521
 C        -0.712044         1.036741         0.054777
 C        -0.635282         1.626951        -1.390394
 C        -2.012243         2.287758        -0.809671
 C        -3.017864         2.724937        -1.892833
 O        -3.331993         1.177513        -2.106911
 C        -2.982441         1.160841        -0.579585
 C        -2.001425         0.118880         0.061438
 C        -1.230165         2.550715         0.458796
 H        -0.131707        -0.329912         1.194769
 H        -0.031244         2.395586        -1.820183
 H        -0.752031         0.892961        -2.143370
 H        -3.791553         3.194931        -1.278793
 H        -2.782932         3.152032        -2.890513
 H        -3.833154         1.535856        -0.052755
 H        -2.266215        -0.144011         1.052439
 H        -1.842015        -0.905272        -0.307146
 H        -0.418565         3.357807         0.396451
 H        -1.864060         2.407252         1.361900
