19
Iteration:  1386charge 0 multiplicity 1
 O         0.427279         0.674133         0.791327
 C        -0.769902         0.926844         0.162109
 C        -0.670504         1.547294        -1.299666
 C        -1.963751         2.308764        -0.820522
 C        -2.969477         2.741448        -1.959267
 O        -3.453962         1.364766        -2.052323
 C        -2.887665         1.077643        -0.770042
 C        -1.959661        -0.017438        -0.138270
 C        -1.393638         2.324389         0.613471
 H         0.187154         0.166525         1.578584
 H         0.164518         2.198971        -1.331448
 H        -0.808380         0.936706        -2.194699
 H        -3.776862         3.371960        -1.537415
 H        -2.496130         3.079430        -2.876826
 H        -3.683633         1.337271        -0.101016
 H        -2.402925        -0.445258         0.901956
 H        -1.568299        -0.947746        -0.712406
 H        -0.519392         3.001918         0.647313
 H        -1.905766         2.374325         1.562930
