19
Iteration:  2266
 O         0.366355         0.357455         0.740339
 C        -0.765494         0.989326         0.165259
 C        -0.711779         1.570834        -1.360268
 C        -1.965729         2.406090        -0.837746
 C        -3.108686         2.715574        -1.917688
 O        -3.318182         1.180666        -2.004326
 C        -2.839579         1.185860        -0.648999
 C        -2.030247         0.061562        -0.017708
 C        -1.255053         2.568219         0.457693
 H         0.165083         0.074811         1.654135
 H         0.197564         2.279963        -1.447081
 H        -0.837165         0.820414        -2.271399
 H        -4.048620         3.234604        -1.588630
 H        -2.944432         3.107011        -3.035564
 H        -3.563613         1.507021         0.014471
 H        -2.517314        -0.232642         0.975891
 H        -1.765446        -0.786606        -0.633107
 H        -0.274256         2.930958         0.356167
 H        -1.671320         3.074743         1.331230
