19
Iteration:  1531
 O         0.268851         0.426622         0.974103
 C        -0.669197         1.057764         0.120518
 C        -0.597672         1.580480        -1.352581
 C        -1.926246         2.302071        -0.939464
 C        -3.014101         2.743065        -1.908561
 O        -3.435999         1.324344        -2.008412
 C        -2.899172         1.055285        -0.642973
 C        -1.958536         0.065455        -0.146317
 C        -1.364262         2.426138         0.518325
 H         1.138615         0.230488         0.452441
 H         0.163213         2.356293        -1.527017
 H        -0.779777         0.898671        -2.153349
 H        -3.868538         3.337572        -1.541237
 H        -2.742305         3.147314        -2.909407
 H        -3.966015         1.213753        -0.116091
 H        -2.316296        -0.571460         0.795016
 H        -1.680718        -0.747019        -0.952056
 H        -0.769142         3.391062         0.591332
 H        -1.968484         2.559103         1.353775
