19
Iteration:  2660charge 0 multiplicity 1
 O         0.386644         0.538106         0.697619
 C        -0.786996         1.023244         0.155676
 C        -0.656455         1.497068        -1.277843
 C        -1.935691         2.307125        -0.860025
 C        -2.995037         2.700575        -1.986498
 O        -3.460508         1.301839        -2.066956
 C        -2.899655         1.175755        -0.626186
 C        -1.976416         0.028105         0.035046
 C        -1.276241         2.430603         0.490154
 H         0.238141        -0.187903         1.389538
 H         0.103276         2.181601        -1.539638
 H        -0.859344         0.696070        -1.925351
 H        -3.723378         3.396697        -1.553745
 H        -2.737735         3.044240        -2.998280
 H        -3.668800         1.459595         0.179883
 H        -2.454705        -0.290071         0.997565
 H        -1.717702        -0.780727        -0.683868
 H        -0.402296         3.141094         0.651344
 H        -1.888139         2.550480         1.441072
