19
Iteration:  3640charge 0 multiplicity 1
 O         0.366845         0.563355         0.730954
 C        -0.788852         0.957055         0.109838
 C        -0.658561         1.521274        -1.345896
 C        -1.917971         2.290457        -0.854320
 C        -2.883058         2.629914        -2.002659
 O        -3.479601         1.320844        -2.029869
 C        -2.855016         1.169909        -0.630131
 C        -2.088769         0.088830         0.090286
 C        -1.346968         2.327130         0.541108
 H         0.646437         1.404780         1.197197
 H         0.214423         2.154968        -1.495698
 H        -0.604583         0.842943        -2.275249
 H        -3.783413         3.367719        -2.007308
 H        -2.330817         2.865942        -3.013718
 H        -3.680464         1.453179        -0.009458
 H        -2.388079         0.001368         1.061894
 H        -2.086665        -0.928838        -0.380057
 H        -0.469774         3.036849         0.566035
 H        -1.859021         2.429658         1.460379
