19
Iteration:  2844
 O         0.336351         0.416378         0.656611
 C        -0.759255         1.041328         0.176209
 C        -0.572504         1.560342        -1.242566
 C        -1.950169         2.339676        -0.901224
 C        -3.015826         2.608576        -2.048807
 O        -3.459591         1.245911        -1.977140
 C        -2.906319         1.169210        -0.588280
 C        -1.958491         0.119041        -0.073961
 C        -1.330314         2.506835         0.573594
 H         0.091644         0.082174         1.585021
 H         0.252866         2.323719        -1.209007
 H        -0.710717         0.935544        -2.181771
 H        -3.749714         3.392429        -1.613787
 H        -2.599765         2.920347        -2.994554
 H        -3.781569         1.482167         0.029132
 H        -2.345419        -0.386946         0.822085
 H        -1.624531        -0.580598        -0.847707
 H        -0.451778         3.100378         0.458324
 H        -1.808497         2.586771         1.557393
