19
Iteration:  1536charge 0 multiplicity 1
 O         0.278683         0.383256         0.977348
 C        -0.697642         1.020198         0.117728
 C        -0.607780         1.650099        -1.327589
 C        -1.914039         2.315114        -0.933951
 C        -3.017087         2.701002        -1.925155
 O        -3.415934         1.310006        -1.993719
 C        -2.896265         1.109865        -0.619906
 C        -1.975232         0.038877        -0.154355
 C        -1.381854         2.453584         0.471002
 H         1.104569         0.338204         0.534592
 H         0.144688         2.424413        -1.642373
 H        -0.704583         0.945263        -2.226788
 H        -3.865788         3.315222        -1.570443
 H        -2.801420         3.118698        -2.913526
 H        -3.702086         1.114673         0.006588
 H        -2.273849        -0.467663         0.701829
 H        -1.752052        -0.616170        -0.926955
 H        -0.643676         3.232927         0.574484
 H        -2.046360         2.629293         1.423569
