19
Iteration:  3750charge 0 multiplicity 1
 O         0.396591         0.628126         0.846054
 C        -0.833446         0.986609         0.244405
 C        -0.669314         1.554834        -1.283920
 C        -1.888538         2.190212        -0.952706
 C        -2.810068         2.668053        -2.021511
 O        -3.630160         1.324696        -1.988524
 C        -2.901140         1.151291        -0.655838
 C        -1.991283         0.018807        -0.055373
 C        -1.341419         2.433204         0.534610
 H         1.003544         0.263049         0.189616
 H         0.253420         2.198041        -1.458434
 H        -0.691492         0.776541        -2.103330
 H        -3.505253         3.478669        -1.873431
 H        -2.427281         2.789806        -3.069704
 H        -3.653029         1.543565         0.143614
 H        -2.462621        -0.439515         0.793427
 H        -1.651643        -0.843829        -0.700392
 H        -0.471086         3.101303         0.579072
 H        -2.057919         2.451916         1.294701
