19
Iteration:   786charge 0 multiplicity 1
 O         0.484585         0.553197         0.723672
 C        -0.733253         0.995836         0.133506
 C        -0.642286         1.600765        -1.276178
 C        -2.021328         2.239464        -0.773115
 C        -2.923572         2.763243        -1.979852
 O        -3.495929         1.358634        -2.069241
 C        -2.954036         0.973599        -0.643484
 C        -1.959984        -0.004742        -0.073414
 C        -1.414100         2.518095         0.591626
 H         0.417917        -0.441839         0.897658
 H         0.299847         2.322460        -1.399823
 H        -0.578847         0.861576        -2.172943
 H        -3.774022         3.562692        -2.083078
 H        -2.273006         2.924717        -2.859898
 H        -3.851907         1.191078        -0.115776
 H        -2.400311        -0.260940         0.927066
 H        -1.663847        -0.922351        -0.569023
 H        -0.588091         3.272692         0.938075
 H        -2.236259         2.468115         1.437918
