19
Iteration:  4963charge 0 multiplicity 1
 O         0.322915         0.527758         0.840576
 C        -0.703379         0.967633         0.103192
 C        -0.631861         1.619099        -1.317636
 C        -1.959042         2.299637        -0.851346
 C        -2.927363         2.729047        -1.898607
 O        -3.324712         1.304893        -2.072338
 C        -2.962369         1.040839        -0.681795
 C        -2.004424        -0.053718        -0.086455
 C        -1.463789         2.435712         0.590381
 H         0.974248         1.264549         0.705311
 H         0.209030         2.363459        -1.307846
 H        -0.630895         1.010000        -2.271881
 H        -3.839856         3.348252        -1.479588
 H        -2.679202         3.194299        -2.883123
 H        -3.799695         1.463845        -0.035932
 H        -2.361497        -0.629289         0.640112
 H        -1.802146        -0.795812        -0.873743
 H        -0.742456         3.259950         0.614499
 H        -2.083890         2.327889         1.531939
