19
Iteration:   304
 O         0.509637         0.550544         0.642175
 C        -0.751239         0.995913         0.154370
 C        -0.670430         1.762764        -1.219318
 C        -2.043476         2.225067        -0.814335
 C        -2.937242         2.721372        -1.887638
 O        -3.310002         1.309657        -2.142706
 C        -2.908236         1.065324        -0.758845
 C        -2.027686         0.009879        -0.143427
 C        -1.505446         2.297970         0.708766
 H         0.290528         0.269695         1.515315
 H        -0.061412         2.626178        -1.170463
 H        -0.521384         1.381831        -2.208744
 H        -3.787794         3.248486        -1.382063
 H        -2.576562         3.217350        -2.707593
 H        -3.729611         1.204673        -0.050616
 H        -2.382798        -0.247976         0.858790
 H        -1.875239        -0.945300        -0.699894
 H        -0.780455         3.050362         0.958409
 H        -2.246765         2.087421         1.626071
