19
Iteration:   785
 O         0.492367         0.547656         0.728593
 C        -0.733534         0.996301         0.134914
 C        -0.642576         1.606538        -1.275965
 C        -2.027937         2.237016        -0.775285
 C        -2.923882         2.755474        -1.974947
 O        -3.499495         1.360254        -2.073324
 C        -2.953962         0.974842        -0.638067
 C        -1.960519        -0.003911        -0.076672
 C        -1.406988         2.515739         0.589767
 H         0.395922        -0.406909         0.907889
 H         0.288345         2.303432        -1.417052
 H        -0.562223         0.876892        -2.144681
 H        -3.791029         3.556010        -2.081563
 H        -2.253541         2.932285        -2.858835
 H        -3.836822         1.217484        -0.125138
 H        -2.400611        -0.232081         0.907145
 H        -1.673597        -0.884858        -0.593665
 H        -0.634401         3.242239         0.933451
 H        -2.237484         2.486722         1.403807
