19
Iteration:  2057charge 0 multiplicity 1
 O         0.361891         0.436177         0.709740
 C        -0.787940         1.042042         0.116379
 C        -0.565241         1.581227        -1.242207
 C        -1.950539         2.258011        -0.934632
 C        -2.934262         2.624915        -2.013258
 O        -3.573835         1.288154        -1.942775
 C        -2.907846         1.148029        -0.590096
 C        -2.008325         0.100774        -0.085693
 C        -1.245652         2.468893         0.546368
 H         0.325863         0.583487         1.638089
 H         0.318980         2.273754        -1.352360
 H        -0.690387         0.882813        -2.115239
 H        -3.697019         3.394500        -1.880268
 H        -2.514803         2.866998        -3.046217
 H        -3.731172         1.358597         0.228959
 H        -2.343817        -0.245192         0.932020
 H        -1.735262        -0.682753        -0.786384
 H        -0.424359         3.122422         0.412630
 H        -1.936544         2.759791         1.354083
