19
Iteration:  3757charge 0 multiplicity 1
 O         0.375243         0.639222         0.837802
 C        -0.809561         1.003602         0.201823
 C        -0.634274         1.527228        -1.234097
 C        -1.903621         2.232958        -0.918742
 C        -2.841082         2.635623        -1.991584
 O        -3.593308         1.361570        -1.994679
 C        -2.942722         1.092794        -0.661292
 C        -2.013123         0.010860        -0.049968
 C        -1.326422         2.457542         0.462244
 H         0.783813         0.145507         0.148530
 H         0.173896         2.151202        -1.470322
 H        -0.666649         0.759717        -2.042313
 H        -3.430800         3.523657        -1.835423
 H        -2.242448         2.808235        -2.905502
 H        -3.648644         1.323833         0.092925
 H        -2.316499        -0.571231         0.963483
 H        -1.623453        -0.775950        -0.762626
 H        -0.505330         3.212689         0.469808
 H        -2.009170         2.485705         1.380547
