19
Iteration:  4993charge 0 multiplicity 1
 O         0.224423         0.288627         0.823591
 C        -0.678344         1.096599         0.162034
 C        -0.630872         1.709821        -1.267310
 C        -1.992493         2.347644        -0.846820
 C        -3.112363         2.718361        -2.002197
 O        -3.336517         1.221879        -2.085042
 C        -2.891013         1.034279        -0.735538
 C        -1.839881         0.127515        -0.084549
 C        -1.371815         2.447519         0.645179
 H         0.988683         0.839264         0.898974
 H         0.189554         2.420178        -1.423441
 H        -0.640013         1.029320        -2.157923
 H        -3.912122         3.220279        -1.462011
 H        -2.896235         3.191499        -2.913953
 H        -3.766734         1.407978        -0.264032
 H        -2.436681        -0.321719         0.821120
 H        -1.556372        -0.820586        -0.620547
 H        -0.737586         3.246876         0.407899
 H        -1.852062         2.422928         1.669230
