19
Iteration:  2553charge 0 multiplicity 1
 O         0.412951         0.539169         0.736796
 C        -0.749400         1.021657         0.138578
 C        -0.657844         1.510284        -1.306442
 C        -1.920858         2.255335        -0.930119
 C        -2.894334         2.725087        -2.067890
 O        -3.639205         1.410050        -1.946541
 C        -2.912681         1.077286        -0.623841
 C        -1.948868         0.011797        -0.001359
 C        -1.305909         2.351652         0.547989
 H         0.367455         0.929238         1.653110
 H         0.253886         2.195124        -1.522334
 H        -0.658949         0.670052        -2.038931
 H        -3.622945         3.593380        -1.912328
 H        -2.455399         2.965151        -3.130421
 H        -3.629043         1.319486         0.197896
 H        -2.322440        -0.354814         0.902578
 H        -1.836640        -0.877087        -0.681041
 H        -0.455794         3.077658         0.617690
 H        -1.959573         2.453309         1.405397
