19
Iteration:  3426charge 0 multiplicity 1
 O         0.368678         0.502945         0.896042
 C        -0.745352         1.012723         0.118328
 C        -0.720481         1.547914        -1.341359
 C        -1.972456         2.226066        -0.876365
 C        -2.937544         2.756289        -1.971135
 O        -3.508915         1.366193        -2.042379
 C        -2.931724         1.068117        -0.729825
 C        -1.846934         0.012672        -0.089871
 C        -1.330421         2.434065         0.565398
 H         0.607002         1.100896         1.658397
 H         0.172752         2.102745        -1.644066
 H        -0.920156         0.709452        -1.976148
 H        -3.712756         3.588415        -1.631402
 H        -2.570338         3.227682        -2.875462
 H        -3.798254         1.024810        -0.131123
 H        -2.369678        -0.414044         0.841511
 H        -1.412669        -0.870200        -0.659187
 H        -0.471883         3.106381         0.504757
 H        -2.076588         2.418329         1.371933
