19
Iteration:   943
 O         0.374797         0.340572         0.748087
 C        -0.705748         1.065942         0.130739
 C        -0.691610         1.617580        -1.306350
 C        -2.011843         2.261882        -0.875734
 C        -2.987138         2.756937        -1.955260
 O        -3.375227         1.230341        -2.056641
 C        -2.974981         1.142287        -0.614953
 C        -1.937452         0.025289        -0.021702
 C        -1.349009         2.512141         0.513387
 H         0.670791         0.708276         1.562858
 H         0.052220         2.330314        -1.588227
 H        -0.751970         0.962024        -2.216508
 H        -3.841743         3.471180        -1.565019
 H        -2.474681         3.239015        -2.838423
 H        -3.761636         1.385538         0.092646
 H        -2.167297        -0.392848         0.997151
 H        -1.736254        -0.760846        -0.770916
 H        -0.711685         3.467724         0.643733
 H        -1.989614         2.454565         1.393724
