19
Iteration:  4215
 O         0.371336         0.619449         0.852730
 C        -0.783918         0.935799         0.113569
 C        -0.652260         1.584109        -1.297552
 C        -1.957036         2.264100        -0.873408
 C        -2.917435         2.704448        -1.979066
 O        -3.422745         1.331877        -2.006590
 C        -2.942987         1.116801        -0.712371
 C        -2.033663        -0.032914        -0.091306
 C        -1.378634         2.358830         0.627809
 H         1.144796         1.021810         0.519924
 H         0.142928         2.355307        -1.429664
 H        -0.655802         0.966932        -2.258567
 H        -3.741476         3.508025        -1.912310
 H        -2.421907         3.021534        -2.903942
 H        -3.715645         1.267809         0.131616
 H        -2.301629        -0.608388         0.852651
 H        -1.683935        -0.753751        -0.943902
 H        -0.565201         3.092507         0.734874
 H        -2.007651         2.327529         1.447338
