19
Iteration:   562charge 0 multiplicity 1
 O         0.435122         0.574930         0.720760
 C        -0.778723         0.950661         0.128900
 C        -0.631719         1.685724        -1.146689
 C        -1.947645         2.341702        -0.901448
 C        -2.980491         2.774391        -1.904369
 O        -3.456110         1.314278        -2.048598
 C        -2.914400         1.045854        -0.672574
 C        -1.963302        -0.063355        -0.205842
 C        -1.395870         2.300282         0.610966
 H         0.552624         1.015988         1.518615
 H         0.238008         2.343249        -1.117938
 H        -0.514828         0.988235        -2.029841
 H        -3.809399         3.295754        -1.526995
 H        -2.591479         3.189416        -2.903446
 H        -3.756513         1.343749        -0.093400
 H        -2.370928        -0.708484         0.602449
 H        -1.788458        -0.904657        -0.900378
 H        -0.618391         3.163849         0.716590
 H        -2.269924         2.217915         1.288931
