19
Iteration:  4020charge 0 multiplicity 1
 O         0.339242         0.474443         0.834262
 C        -0.749677         1.012175         0.078600
 C        -0.602169         1.640678        -1.314125
 C        -1.963709         2.284139        -0.899039
 C        -2.964176         2.682849        -1.961322
 O        -3.456183         1.272768        -2.061224
 C        -2.950212         1.039906        -0.654876
 C        -1.975174         0.063047         0.071675
 C        -1.342570         2.506351         0.542487
 H         1.038908         0.041783         0.367792
 H        -0.032703         2.527207        -1.369901
 H        -0.495387         0.928826        -2.138864
 H        -3.930804         3.284789        -1.838520
 H        -2.428414         2.915642        -2.918554
 H        -3.823647         1.266161         0.020196
 H        -2.216584        -0.373777         0.994096
 H        -1.769296        -0.555106        -0.707749
 H        -0.562245         3.348840         0.624237
 H        -1.954198         2.504278         1.463309
