19
Iteration:  3668charge 0 multiplicity 1
 O         0.410199         0.369792         0.780067
 C        -0.749752         1.020832         0.196150
 C        -0.744284         1.482319        -1.343176
 C        -1.988703         2.275992        -0.900642
 C        -2.981940         2.717833        -1.974969
 O        -3.333723         1.249585        -2.110326
 C        -2.932896         1.165657        -0.613996
 C        -2.031658         0.170845         0.075129
 C        -1.300012         2.498035         0.471076
 H         0.772999         0.993045         1.413127
 H         0.028419         2.242330        -1.599317
 H        -0.811964         0.676406        -2.038331
 H        -3.864675         3.202694        -1.613307
 H        -2.709881         3.125328        -2.915736
 H        -3.917164         1.380579        -0.101645
 H        -2.383233        -0.267475         1.145471
 H        -1.880490        -0.622759        -0.661172
 H        -0.505668         3.246875         0.478255
 H        -1.809419         2.720962         1.478172
