19
Iteration:  3888charge 0 multiplicity 1
 O         0.449896         0.680277         0.835287
 C        -0.717332         0.966535         0.074077
 C        -0.646308         1.577094        -1.333602
 C        -1.879809         2.227340        -0.880669
 C        -2.872427         2.598606        -2.012253
 O        -3.509383         1.311174        -1.976461
 C        -2.973747         1.157918        -0.624860
 C        -2.082710         0.011806        -0.065717
 C        -1.352244         2.417363         0.539033
 H         0.189824        -0.074460         1.345547
 H         0.071820         2.309381        -1.451289
 H        -0.678979         0.828678        -2.136263
 H        -3.545309         3.564507        -1.846776
 H        -2.588907         2.773592        -3.077446
 H        -3.678025         1.569400         0.211175
 H        -2.440220        -0.431401         0.834770
 H        -2.081163        -0.815268        -0.681619
 H        -0.445539         3.084811         0.674801
 H        -2.165203         2.449418         1.256028
