19
Iteration:   552charge 0 multiplicity 1
 O         0.400117         0.532797         0.728483
 C        -0.757775         0.999421         0.131570
 C        -0.578112         1.710594        -1.294152
 C        -1.985303         2.233444        -0.825924
 C        -2.948219         2.731611        -1.889221
 O        -3.457272         1.319184        -2.053390
 C        -2.885322         1.098315        -0.706291
 C        -1.990479        -0.075198        -0.170835
 C        -1.479475         2.322944         0.634380
 H         0.610851         1.072181         1.455988
 H         0.208088         2.469530        -1.177250
 H        -0.488664         1.192333        -2.288666
 H        -3.630049         3.393610        -1.532640
 H        -2.492072         3.145250        -2.811439
 H        -3.595136         1.263232         0.080736
 H        -2.421410        -0.531039         0.711968
 H        -1.566970        -0.741979        -0.930053
 H        -0.751670         3.135976         0.783183
 H        -2.078810         2.305198         1.566746
