19
Iteration:   686
 O         0.391972         0.478763         0.838262
 C        -0.758682         0.989791         0.131633
 C        -0.717726         1.670194        -1.313083
 C        -1.982916         2.220919        -0.819090
 C        -2.909993         2.754087        -1.957826
 O        -3.483701         1.349926        -2.050644
 C        -2.920952         1.020853        -0.724228
 C        -1.889723        -0.007361        -0.086501
 C        -1.399597         2.386076         0.599867
 H         1.008399         1.094342         0.521846
 H         0.256454         2.295863        -1.346885
 H        -0.817316         1.073223        -2.267735
 H        -3.660642         3.393241        -1.538407
 H        -2.495156         3.202707        -2.843451
 H        -3.803426         1.166365        -0.178851
 H        -2.313795        -0.298723         0.863458
 H        -1.508714        -0.820794        -0.660991
 H        -0.693773         3.253486         0.634307
 H        -2.166433         2.554289         1.470102
