19
Iteration:  4188
 O         0.344913         0.469716         0.895232
 C        -0.763539         0.994317         0.159234
 C        -0.625405         1.569007        -1.348420
 C        -1.963323         2.237289        -0.935152
 C        -3.023989         2.746806        -1.830496
 O        -3.384330         1.302243        -2.178788
 C        -2.888248         1.079654        -0.742020
 C        -1.934349         0.091562         0.030265
 C        -1.415794         2.420988         0.539935
 H         1.142775         0.574475         0.416658
 H         0.101061         2.374915        -1.534806
 H        -0.788728         0.840155        -2.126342
 H        -3.907516         3.206157        -1.318836
 H        -2.855260         3.511034        -2.616015
 H        -3.694869         1.241685        -0.065631
 H        -2.234061        -0.274652         0.992030
 H        -1.673904        -0.712925        -0.603775
 H        -0.654991         3.233634         0.611219
 H        -2.041526         2.568090         1.521351
