19
Iteration:   165
 O         0.267381         0.507711         0.768418
 C        -0.777106         1.037093         0.083424
 C        -0.656975         1.755118        -1.237788
 C        -2.030298         2.323512        -0.790665
 C        -3.056465         2.692665        -1.903627
 O        -3.315741         1.253621        -2.108594
 C        -2.889538         1.082340        -0.712395
 C        -1.900797        -0.012533        -0.215151
 C        -1.333764         2.289728         0.764589
 H         1.141148         0.868411         0.588868
 H         0.112470         2.493273        -1.117836
 H        -0.443441         1.291253        -2.204533
 H        -3.888088         3.197991        -1.365794
 H        -2.774256         3.219414        -2.869672
 H        -3.830914         1.249509        -0.166794
 H        -2.296099        -0.587805         0.608473
 H        -1.580056        -0.687140        -1.041257
 H        -0.637740         3.056004         0.763728
 H        -1.907060         2.293095         1.608564
