19
Iteration:  3883charge 0 multiplicity 1
 O         0.446452         0.695248         0.826188
 C        -0.717478         0.920317         0.104598
 C        -0.688869         1.553965        -1.347904
 C        -1.933813         2.226847        -0.892145
 C        -2.846115         2.598694        -2.036371
 O        -3.501195         1.357666        -1.966334
 C        -2.963417         1.170724        -0.610979
 C        -2.058087         0.042285        -0.049429
 C        -1.355699         2.375068         0.537608
 H         0.254870        -0.132561         1.344401
 H         0.137650         2.399127        -1.391108
 H        -0.748234         0.950059        -2.274534
 H        -3.582442         3.410139        -1.976611
 H        -2.485505         2.567916        -3.071764
 H        -3.680719         1.532955         0.145681
 H        -2.312922        -0.325739         0.997948
 H        -1.848664        -0.819006        -0.840714
 H        -0.562287         3.052335         0.741372
 H        -2.145208         2.467159         1.326324
