19
Iteration:  4371charge 0 multiplicity 1
 O         0.333251         0.380518         0.757927
 C        -0.797343         1.032522         0.155158
 C        -0.606722         1.755716        -1.243857
 C        -1.969513         2.347188        -0.905328
 C        -2.985682         2.700033        -1.987780
 O        -3.378245         1.173300        -1.999353
 C        -2.838431         1.177248        -0.719276
 C        -1.979621         0.071835        -0.125757
 C        -1.452933         2.363364         0.652178
 H         1.066512         1.054984         0.803426
 H         0.265864         2.444140        -1.162725
 H        -0.651763         0.981692        -1.951776
 H        -3.971274         3.199174        -1.871530
 H        -2.562188         2.825379        -3.054280
 H        -3.415756         1.465136         0.166588
 H        -2.383413        -0.407567         0.853124
 H        -1.844767        -0.730069        -0.850739
 H        -0.626193         2.967893         0.861714
 H        -2.209627         2.550877         1.385383
