19
Iteration:  2880charge 0 multiplicity 1
 O         0.328671         0.485429         0.878166
 C        -0.730788         0.950886         0.039786
 C        -0.638855         1.559542        -1.420784
 C        -1.955463         2.250982        -0.918461
 C        -3.020075         2.720674        -1.841461
 O        -3.404339         1.355533        -2.043982
 C        -2.919392         1.105569        -0.655180
 C        -1.957702         0.083731        -0.015578
 C        -1.282738         2.418270         0.485448
 H         0.100744         0.717335         1.842544
 H         0.148134         2.239723        -1.643084
 H        -0.762182         0.997261        -2.317550
 H        -3.870144         3.230782        -1.296397
 H        -2.769547         3.255863        -2.792049
 H        -3.750486         1.173829         0.000350
 H        -2.284435        -0.450034         1.006492
 H        -1.759423        -0.878557        -0.667174
 H        -0.484193         3.234536         0.284088
 H        -1.906469         2.541939         1.367867
