19
Iteration:  3582
 O         0.202634         0.415089         0.966774
 C        -0.769049         1.040690         0.139448
 C        -0.592748         1.603625        -1.377677
 C        -1.891760         2.326892        -0.972137
 C        -2.995004         2.707854        -1.992954
 O        -3.507162         1.234331        -1.938685
 C        -2.892391         1.138082        -0.606824
 C        -1.926282         0.026945        -0.064264
 C        -1.247483         2.498948         0.395765
 H         0.985096         0.283399         0.464648
 H         0.095315         2.429667        -1.224151
 H        -0.513065         0.975471        -2.256302
 H        -3.888479         3.151085        -1.540468
 H        -2.815760         3.031403        -3.050652
 H        -3.632058         1.430291         0.234582
 H        -2.181862        -0.305550         1.030831
 H        -1.689168        -0.750472        -0.753853
 H        -0.410948         3.159764         0.373798
 H        -1.921856         2.678700         1.244887
