19
Iteration:  3063
 O         0.339504         0.436152         0.823762
 C        -0.771303         1.016541         0.177249
 C        -0.669367         1.568424        -1.297499
 C        -1.948922         2.325494        -0.882205
 C        -2.934082         2.659064        -2.005926
 O        -3.535167         1.327908        -1.968997
 C        -2.887948         1.171301        -0.632665
 C        -1.946062         0.001809        -0.191136
 C        -1.326184         2.425931         0.533438
 H         0.827218         1.095257         1.341883
 H         0.208376         2.314138        -1.392231
 H        -0.447422         0.790047        -2.129731
 H        -3.661692         3.432689        -1.742089
 H        -2.419932         2.858903        -2.918288
 H        -3.641875         1.355876         0.044679
 H        -2.321965        -0.527062         0.697673
 H        -1.742053        -0.722585        -0.980209
 H        -0.462221         3.155171         0.779240
 H        -2.023659         2.590614         1.429942
