19
Iteration:  4600
 O         0.306870         0.467272         0.853027
 C        -0.709106         1.032447         0.096940
 C        -0.665417         1.681088        -1.265561
 C        -1.993007         2.300079        -0.763565
 C        -2.933575         2.679235        -1.966857
 O        -3.461950         1.284760        -2.122644
 C        -2.884922         1.042700        -0.739637
 C        -1.909780         0.026849        -0.140825
 C        -1.410794         2.440296         0.650058
 H         1.009830         1.183793         0.838503
 H         0.232859         2.371443        -1.391845
 H        -0.771807         1.022945        -2.132878
 H        -3.717384         3.306491        -1.592635
 H        -2.489084         2.963231        -2.943774
 H        -3.745050         1.116105         0.012916
 H        -2.277400        -0.397385         0.892313
 H        -1.766404        -0.871376        -0.814335
 H        -0.488677         3.138814         0.640422
 H        -2.045426         2.293240         1.579170
