19
Iteration:  4134charge 0 multiplicity 1
 O         0.340732         0.460666         0.742264
 C        -0.800734         1.031920         0.153765
 C        -0.711139         1.695798        -1.318706
 C        -1.948050         2.353355        -0.888715
 C        -2.898835         2.619660        -2.028958
 O        -3.348451         1.235117        -1.991517
 C        -2.927187         1.123882        -0.561945
 C        -2.035463         0.035936        -0.114199
 C        -1.336775         2.401449         0.592274
 H         1.012657         1.095236         1.002899
 H         0.057848         2.499867        -1.340279
 H        -0.744576         1.039440        -2.170007
 H        -3.863188         3.229437        -1.732333
 H        -2.286497         2.877004        -2.933409
 H        -3.811163         1.349980         0.157361
 H        -2.393846        -0.488013         0.769890
 H        -1.712536        -0.676336        -0.871133
 H        -0.761485         3.262981         0.915764
 H        -2.088599         2.123868         1.407210
