19
Iteration:   674charge 0 multiplicity 1
 O         0.377555         0.546408         0.779092
 C        -0.775263         1.001185         0.160490
 C        -0.679695         1.623947        -1.315082
 C        -1.995511         2.309686        -0.856782
 C        -2.905637         2.779569        -1.889601
 O        -3.410941         1.308147        -2.047442
 C        -2.910131         1.048140        -0.672398
 C        -1.986159        -0.062735        -0.091124
 C        -1.421760         2.397505         0.571045
 H         1.256356         0.776057         0.341194
 H        -0.057760         2.572657        -1.409564
 H        -0.512402         0.902819        -2.153165
 H        -3.774261         3.436238        -1.761317
 H        -2.372584         3.021266        -2.817153
 H        -3.598831         1.143061         0.099525
 H        -2.410602        -0.518898         0.753655
 H        -1.679147        -0.876824        -0.712405
 H        -0.582920         2.996103         0.891200
 H        -2.261465         2.303376         1.406848
