19
Iteration:  2892charge 0 multiplicity 1
 O         0.306212         0.581660         0.788854
 C        -0.748644         1.019297         0.099123
 C        -0.665922         1.492958        -1.354426
 C        -1.954453         2.199485        -0.833795
 C        -2.990055         2.795179        -1.821991
 O        -3.451698         1.350554        -2.074404
 C        -2.904840         1.046205        -0.695142
 C        -1.954349         0.010820        -0.045659
 C        -1.240767         2.374356         0.437098
 H         0.102425         0.891255         1.665259
 H         0.136359         2.177817        -1.366754
 H        -0.625451         0.651839        -1.965449
 H        -3.796677         3.391707        -1.327506
 H        -2.705221         3.285887        -2.803392
 H        -3.623262         1.474580        -0.057141
 H        -2.377956        -0.244623         1.056340
 H        -1.641450        -0.873662        -0.748862
 H        -0.338487         3.125398         0.580560
 H        -1.907953         2.537545         1.324706
