19
Iteration:  3722charge 0 multiplicity 1
 O         0.324032         0.480664         0.915273
 C        -0.739919         0.976808         0.118280
 C        -0.574658         1.571288        -1.330996
 C        -1.912497         2.300286        -0.913086
 C        -3.006297         2.629930        -2.037244
 O        -3.466698         1.290622        -1.991057
 C        -2.938734         1.224541        -0.572732
 C        -2.006353         0.100918        -0.071746
 C        -1.320857         2.418933         0.444206
 H         1.171665         0.610561         0.543662
 H         0.292176         2.267097        -1.395870
 H        -0.747213         0.762223        -1.994824
 H        -3.957108         3.298772        -1.844370
 H        -2.582335         2.669223        -3.010349
 H        -3.700259         1.607499         0.032622
 H        -2.259009        -0.233242         1.043701
 H        -1.921407        -0.758273        -0.706245
 H        -0.629812         3.211842         0.734506
 H        -2.009098         2.147542         1.395085
