19
Iteration:  3989charge 0 multiplicity 1
 O         0.477401         0.515504         0.700366
 C        -0.793492         0.983008         0.210939
 C        -0.739321         1.511442        -1.226003
 C        -1.982432         2.304555        -0.894901
 C        -2.855892         2.663756        -2.032292
 O        -3.454359         1.286575        -1.985386
 C        -2.887120         1.138172        -0.709437
 C        -2.027943         0.074621        -0.003455
 C        -1.429312         2.457895         0.598159
 H         1.206765         1.205008         0.594172
 H         0.098542         2.155935        -1.502281
 H        -0.816434         0.814899        -2.029406
 H        -3.771408         3.457561        -1.979880
 H        -2.221307         2.771725        -2.999056
 H        -3.853049         1.311056         0.025668
 H        -2.448104        -0.463230         0.856487
 H        -1.804476        -0.786169        -0.630217
 H        -0.593535         3.183617         0.729402
 H        -2.193511         2.507609         1.404079
