19
Iteration:  1251
 O         0.510645         0.668324         0.752937
 C        -0.749242         0.926809         0.137135
 C        -0.607238         1.522116        -1.285576
 C        -1.993312         2.208603        -0.861817
 C        -2.873473         2.806574        -1.887041
 O        -3.452158         1.343286        -2.094236
 C        -3.033594         1.074588        -0.721001
 C        -2.033076        -0.032961        -0.079606
 C        -1.433994         2.383811         0.580215
 H         0.410719         0.282669         1.586459
 H         0.228511         2.248153        -1.446004
 H        -0.712715         0.728109        -2.027873
 H        -3.713191         3.403049        -1.483355
 H        -2.409665         3.257893        -2.796015
 H        -3.898027         1.213864        -0.130054
 H        -2.471887        -0.491105         1.002627
 H        -1.566797        -0.673454        -0.798723
 H        -0.669490         3.150131         0.686512
 H        -2.056324         2.619181         1.492060
