19
Iteration:  2335
 O         0.436524         0.627548         0.659509
 C        -0.811257         0.969623         0.103763
 C        -0.643523         1.462195        -1.289807
 C        -1.913016         2.252054        -0.911849
 C        -2.881060         2.680298        -2.066456
 O        -3.573152         1.343282        -1.941778
 C        -2.992834         1.212705        -0.624595
 C        -1.997095         0.035632         0.007288
 C        -1.261443         2.375353         0.627068
 H         0.270740         0.249136         1.586746
 H         0.202043         2.192459        -1.455531
 H        -0.705017         0.616790        -2.011334
 H        -3.660500         3.484875        -1.815734
 H        -2.349415         2.933206        -3.044672
 H        -3.720727         1.379726         0.082610
 H        -2.560918        -0.389298         0.835997
 H        -1.653935        -0.793923        -0.734623
 H        -0.337608         2.949627         0.688380
 H        -1.912022         2.591642         1.456448
