19
Iteration:  3240charge 0 multiplicity 1
 O         0.229737         0.352064         0.950983
 C        -0.760342         1.018472         0.155238
 C        -0.612029         1.656911        -1.350078
 C        -1.946361         2.324941        -0.940195
 C        -3.057310         2.764065        -1.963126
 O        -3.467579         1.202573        -1.942036
 C        -2.812110         1.126985        -0.682047
 C        -1.909646         0.057804        -0.184023
 C        -1.286868         2.482806         0.527066
 H         1.110147         0.781935         1.043858
 H         0.214908         2.423893        -1.518478
 H        -0.806487         0.870409        -2.150106
 H        -3.819248         3.436406        -1.704632
 H        -2.825590         3.009999        -2.957708
 H        -3.566476         1.350267         0.203236
 H        -2.298532        -0.537979         0.571495
 H        -1.686933        -0.603553        -1.063725
 H        -0.412188         3.247179         0.634105
 H        -2.107394         2.549831         1.274850
