19
Iteration:  4467
 O         0.476946         0.551574         0.826285
 C        -0.745584         0.974208         0.117877
 C        -0.658384         1.636465        -1.267022
 C        -1.913161         2.212051        -0.829507
 C        -2.957417         2.712875        -1.967743
 O        -3.392196         1.305784        -2.040035
 C        -2.939626         1.068306        -0.757970
 C        -2.094444        -0.005016        -0.155766
 C        -1.470279         2.398185         0.616350
 H         0.941367         1.448767         0.965327
 H         0.264186         2.296999        -1.177604
 H        -0.647077         0.937795        -2.098377
 H        -3.592512         3.481728        -1.536936
 H        -2.362767         3.147323        -2.777004
 H        -3.759454         1.275523         0.050426
 H        -2.595167        -0.577587         0.756849
 H        -1.838071        -0.756560        -0.923786
 H        -0.775849         3.307663         0.904531
 H        -2.255391         2.343945         1.400079
