19
Iteration:  2626
 O         0.331544         0.388336         0.772977
 C        -0.707207         1.043921         0.058255
 C        -0.637337         1.629730        -1.378290
 C        -2.023477         2.286457        -0.831703
 C        -3.015884         2.712499        -1.897734
 O        -3.336250         1.182348        -2.103823
 C        -2.953262         1.148896        -0.573737
 C        -1.999972         0.140237         0.055759
 C        -1.219501         2.546317         0.471140
 H        -0.171280        -0.371995         1.208706
 H        -0.024154         2.345575        -1.820334
 H        -0.767372         0.864967        -2.110729
 H        -3.790683         3.231549        -1.324537
 H        -2.789969         3.160953        -2.831648
 H        -3.935550         1.519400        -0.083453
 H        -2.260428        -0.189295         1.143229
 H        -1.831845        -0.876747        -0.347913
 H        -0.416338         3.291496         0.405529
 H        -1.861588         2.391261         1.426077
