19
Iteration:  4935
 O         0.394579         0.557307         0.822885
 C        -0.699220         0.967697         0.203830
 C        -0.710492         1.551132        -1.247099
 C        -1.997853         2.350783        -0.846759
 C        -2.896464         2.717179        -1.957233
 O        -3.472477         1.369151        -2.094735
 C        -2.965698         1.047754        -0.788961
 C        -1.892555        -0.018056        -0.097605
 C        -1.454029         2.350086         0.641434
 H         1.009325         1.369372         0.738883
 H         0.089494         2.304848        -1.332966
 H        -0.661802         0.846898        -2.054438
 H        -3.649249         3.449966        -1.904452
 H        -2.434615         2.886900        -2.948954
 H        -3.713759         1.296298        -0.022538
 H        -2.444121        -0.779625         0.703684
 H        -1.501612        -0.689015        -0.887369
 H        -0.648905         3.148024         0.834369
 H        -2.021120         2.338502         1.555576
