19
Iteration:   309
 O         0.496270         0.589783         0.629630
 C        -0.695363         0.991943         0.145530
 C        -0.665448         1.728691        -1.200194
 C        -1.998528         2.264260        -0.769807
 C        -2.941921         2.745804        -1.894658
 O        -3.298241         1.294400        -2.110941
 C        -2.965507         1.078384        -0.751148
 C        -2.034146        -0.002263        -0.157170
 C        -1.519646         2.225681         0.699343
 H         0.315999         0.376273         1.617069
 H         0.084927         2.585962        -1.069873
 H        -0.718869         1.333176        -2.261784
 H        -3.782183         3.232337        -1.412377
 H        -2.517975         3.157104        -2.927651
 H        -3.889945         1.236479        -0.124727
 H        -2.496301        -0.236051         0.826458
 H        -1.805775        -0.838492        -0.836256
 H        -0.855729         3.134259         0.832079
 H        -2.256552         2.076631         1.406012
