19
Iteration:  2438charge 0 multiplicity 1
 O         0.432480         0.547153         0.617868
 C        -0.847700         1.002670         0.166492
 C        -0.745600         1.509235        -1.294267
 C        -1.961567         2.248056        -0.848114
 C        -2.794554         2.686956        -2.031485
 O        -3.497847         1.347150        -1.935478
 C        -2.924818         1.101985        -0.638482
 C        -2.025329         0.027394         0.025359
 C        -1.285826         2.519013         0.547358
 H         0.555515        -0.195227         1.236014
 H         0.024617         2.192839        -1.472221
 H        -0.742717         0.793810        -2.077747
 H        -3.715639         3.466048        -2.017622
 H        -2.336399         2.824106        -3.020656
 H        -3.689080         1.420161         0.089125
 H        -2.533428        -0.282127         1.029999
 H        -1.817656        -0.911394        -0.492334
 H        -0.330944         3.136081         0.423582
 H        -1.957949         2.704281         1.480580
