19
Iteration:   108
 O         0.424030         0.584471         0.600409
 C        -0.792333         1.060930         0.203281
 C        -0.628563         1.704451        -1.195024
 C        -2.042010         2.250988        -0.738944
 C        -2.936726         2.665259        -1.840286
 O        -3.380407         1.322689        -2.172668
 C        -2.946918         0.968608        -0.773144
 C        -1.923163        -0.020672        -0.139731
 C        -1.419833         2.464159         0.705604
 H         0.319910        -0.228492         1.099340
 H         0.186423         2.420707        -1.231540
 H        -0.660765         0.957064        -1.934014
 H        -3.765725         3.356800        -1.475475
 H        -2.460664         3.162617        -2.661245
 H        -3.852178         0.866708        -0.129859
 H        -2.430064        -0.534260         0.716781
 H        -1.514415        -0.826279        -0.799093
 H        -0.715191         3.186249         0.647114
 H        -2.139963         2.602283         1.474860
