19
Iteration:  3175
 O         0.431382         0.469944         0.787640
 C        -0.696439         1.012022         0.167380
 C        -0.699137         1.500391        -1.276637
 C        -1.988444         2.266927        -0.823119
 C        -2.929577         2.732358        -2.007933
 O        -3.439959         1.381255        -2.123401
 C        -2.965766         1.092832        -0.647537
 C        -2.002197         0.075960         0.025282
 C        -1.378966         2.386182         0.559662
 H         1.061276         1.124669         0.540709
 H         0.191123         2.162717        -1.625073
 H        -1.016863         0.644846        -1.982117
 H        -3.650732         3.514318        -1.816343
 H        -2.393194         3.001588        -2.922722
 H        -3.872094         1.194084        -0.140868
 H        -2.319311        -0.317851         0.932200
 H        -1.854742        -0.756385        -0.692805
 H        -0.642949         3.230992         0.905761
 H        -2.052353         2.375062         1.431153
