19
Iteration:  2938
 O         0.448635         0.499826         0.680740
 C        -0.786372         1.000993         0.147435
 C        -0.599084         1.606009        -1.295746
 C        -1.952176         2.308737        -0.881574
 C        -2.874131         2.684528        -2.041815
 O        -3.491871         1.277028        -1.979664
 C        -2.971313         1.162456        -0.586654
 C        -2.011359         0.078467        -0.062596
 C        -1.385853         2.400017         0.582949
 H         0.250195         0.001998         1.447556
 H         0.148170         2.401160        -1.294881
 H        -0.583394         0.840581        -2.056480
 H        -3.712453         3.352202        -1.891991
 H        -2.363983         2.878048        -3.032492
 H        -3.762976         1.221667         0.114522
 H        -2.405089        -0.315888         0.957537
 H        -1.761136        -0.681418        -0.840223
 H        -0.675623         3.254345         0.717587
 H        -2.089542         2.321659         1.533890
