19
Iteration:  4173
 O         0.315761         0.337715         0.892495
 C        -0.668233         1.145244         0.165489
 C        -0.703538         1.615377        -1.301212
 C        -2.002230         2.254078        -0.839488
 C        -3.101335         2.724910        -1.832399
 O        -3.316306         1.292906        -2.176073
 C        -2.938706         1.046650        -0.741010
 C        -1.946542         0.047877        -0.000934
 C        -1.321486         2.540813         0.483716
 H         1.175196         0.458527         0.449340
 H         0.166880         2.305440        -1.429164
 H        -0.509972         0.958269        -2.162941
 H        -3.855028         3.171415        -1.267440
 H        -2.901390         3.154339        -2.836195
 H        -3.847427         1.340360        -0.201967
 H        -2.442247        -0.442828         0.885976
 H        -1.486487        -0.807563        -0.547183
 H        -0.589774         3.352067         0.420584
 H        -2.130378         2.511872         1.240495
