19
Iteration:  3127
 O         0.361968         0.451486         0.829522
 C        -0.786596         1.034386         0.129172
 C        -0.675356         1.510386        -1.327252
 C        -2.001248         2.332539        -0.827668
 C        -3.030835         2.742485        -1.991583
 O        -3.366045         1.305031        -2.128825
 C        -2.888579         1.142990        -0.649484
 C        -2.005430        -0.024206         0.002752
 C        -1.289213         2.472558         0.588901
 H         1.193518         0.559706         0.261257
 H         0.174003         2.175088        -1.308408
 H        -0.722176         0.771477        -2.119064
 H        -3.875026         3.376146        -1.697003
 H        -2.653434         3.241810        -2.855932
 H        -3.810542         1.322453         0.048848
 H        -2.502056        -0.344890         0.978533
 H        -1.780525        -0.904086        -0.625998
 H        -0.456368         3.155766         0.774437
 H        -1.989291         2.602007         1.455555
