19
Iteration:  1409charge 0 multiplicity 1
 O         0.378682         0.427198         0.698321
 C        -0.732487         1.034263         0.176444
 C        -0.583486         1.608480        -1.269182
 C        -1.962999         2.332597        -0.878068
 C        -2.991869         2.710474        -1.934704
 O        -3.404706         1.257963        -2.049030
 C        -2.876905         1.117284        -0.646643
 C        -1.958558         0.049759        -0.125493
 C        -1.460115         2.474174         0.576390
 H         0.199892         0.339991         1.647005
 H         0.153368         2.399241        -1.182792
 H        -0.427748         0.890853        -2.071349
 H        -3.819109         3.223739        -1.409200
 H        -2.710619         3.123014        -2.909952
 H        -3.700545         1.371064        -0.042355
 H        -2.339467        -0.622470         0.801079
 H        -1.681063        -0.691501        -0.997301
 H        -0.786238         3.296554         0.965843
 H        -2.282761         2.376669         1.238172
