19
Iteration:  1797
 O         0.306484         0.462751         0.758351
 C        -0.773685         1.046490         0.120887
 C        -0.641739         1.580142        -1.360027
 C        -1.972986         2.269376        -0.822303
 C        -2.930802         2.681568        -1.983328
 O        -3.365925         1.182031        -1.997638
 C        -2.952385         1.174304        -0.586485
 C        -2.040126         0.141004        -0.034345
 C        -1.264505         2.488579         0.574589
 H         0.368160        -0.397799         0.259933
 H         0.165744         2.301159        -1.430865
 H        -0.611902         0.926021        -2.250691
 H        -3.847220         3.145672        -1.562709
 H        -2.591345         2.962201        -3.017212
 H        -3.767460         1.523032         0.058176
 H        -2.226036        -0.334258         1.005318
 H        -1.808282        -0.373823        -0.957715
 H        -0.475928         3.177835         0.565156
 H        -1.952693         2.769456         1.479052
