19
Iteration:  2900
 O         0.383918         0.602753         0.765785
 C        -0.775317         1.041568         0.146264
 C        -0.651012         1.419842        -1.293831
 C        -1.958868         2.244835        -0.923582
 C        -2.973515         2.791992        -1.826010
 O        -3.475550         1.344432        -2.071447
 C        -2.913186         1.067614        -0.690293
 C        -1.994258        -0.033682        -0.093782
 C        -1.295439         2.425410         0.488729
 H         0.372268         0.839953         1.717749
 H         0.175375         2.139056        -1.464405
 H        -0.656142         0.699977        -2.144612
 H        -3.689135         3.546672        -1.351596
 H        -2.538710         3.288347        -2.699666
 H        -3.837091         1.299245         0.004751
 H        -2.482234        -0.379086         0.881459
 H        -1.600980        -0.989630        -0.565560
 H        -0.348291         3.001579         0.637001
 H        -1.805409         2.504254         1.396308
