19
Iteration:   926
 O         0.351013         0.438486         0.727357
 C        -0.774976         1.000445         0.129098
 C        -0.701151         1.629885        -1.354075
 C        -1.993235         2.332810        -0.790052
 C        -2.913880         2.659826        -1.987872
 O        -3.433024         1.292620        -1.980530
 C        -2.873467         1.090903        -0.663670
 C        -1.960367         0.094250        -0.076239
 C        -1.343953         2.400197         0.571746
 H         0.649938         1.127447         1.332186
 H         0.141245         2.391125        -1.307937
 H        -0.719633         0.835754        -2.109267
 H        -3.698989         3.350981        -1.753483
 H        -2.441816         2.808681        -2.959172
 H        -3.810555         1.263137         0.108257
 H        -2.366302        -0.251229         0.901359
 H        -1.767767        -0.679856        -0.900915
 H        -0.476094         3.030166         0.598022
 H        -2.079835         2.516255         1.413707
