19
Iteration:   200
 O         0.474816         0.526842         0.884627
 C        -0.631584         0.976357         0.168498
 C        -0.674768         1.724024        -1.261168
 C        -1.999495         2.216049        -0.834889
 C        -2.931291         2.733381        -1.903135
 O        -3.536005         1.422519        -2.089007
 C        -2.887139         0.992839        -0.767022
 C        -1.851930        -0.075837        -0.266428
 C        -1.625908         2.454763         0.683297
 H         0.860475        -0.125825         0.300311
 H         0.138304         2.507216        -1.141558
 H        -0.604963         0.866149        -2.021085
 H        -3.632937         3.399580        -1.394868
 H        -2.665709         3.200643        -2.968591
 H        -3.636405         1.048249         0.060305
 H        -2.249251        -0.766993         0.471796
 H        -1.328012        -0.693089        -0.987385
 H        -1.052834         3.445676         0.798119
 H        -2.239411         2.271622         1.547785
