19
Iteration:  4620charge 0 multiplicity 1
 O         0.281755         0.358332         0.808819
 C        -0.761526         1.032485         0.227340
 C        -0.627625         1.710949        -1.273028
 C        -1.935095         2.357944        -0.923669
 C        -3.115528         2.696792        -1.969438
 O        -3.293500         1.215245        -2.009197
 C        -2.903475         1.116781        -0.679428
 C        -1.945259         0.047787        -0.159251
 C        -1.426174         2.423279         0.565982
 H         1.050266         0.908458         0.799771
 H         0.248246         2.508191        -1.230515
 H        -0.309622         0.989740        -2.050021
 H        -3.983048         3.214975        -1.511992
 H        -2.728310         3.152778        -2.895200
 H        -3.598861         1.525909         0.073151
 H        -2.138749        -0.642586         0.725690
 H        -1.510015        -0.544368        -0.926027
 H        -0.591571         3.264426         0.689876
 H        -2.292573         2.397957         1.291723
