19
Iteration:   276charge 0 multiplicity 1
 O         0.394081         0.417388         0.697929
 C        -0.730491         1.064588         0.214108
 C        -0.646516         1.684501        -1.165364
 C        -2.116391         2.292776        -0.769992
 C        -3.088394         2.742674        -1.881963
 O        -3.291261         1.330344        -2.159057
 C        -2.889459         1.027218        -0.789583
 C        -1.808411         0.039607        -0.146195
 C        -1.459494         2.422743         0.627717
 H        -0.063069        -0.318983         1.172612
 H         0.201921         2.461344        -1.244362
 H        -0.753980         1.316764        -2.228716
 H        -3.951201         3.247507        -1.432911
 H        -2.848520         3.393510        -2.868919
 H        -3.736707         0.857255        -0.100412
 H        -2.075340        -0.543470         0.766429
 H        -1.413025        -0.804150        -0.729150
 H        -0.774651         3.307801         0.684895
 H        -1.966562         2.427026         1.508543
