19
Iteration:  3257charge 0 multiplicity 1
 O         0.300938         0.466854         0.932485
 C        -0.735002         0.992875         0.122155
 C        -0.634558         1.601513        -1.321965
 C        -1.921456         2.278798        -0.864708
 C        -2.981832         2.677388        -1.981553
 O        -3.550219         1.411972        -2.016183
 C        -2.883692         1.080131        -0.693266
 C        -1.897351        -0.061207        -0.119038
 C        -1.358724         2.444786         0.507077
 H         0.960984         1.154778         0.766697
 H         0.187830         2.289233        -1.409688
 H        -0.625605         0.990081        -2.195023
 H        -3.776776         3.443213        -1.525392
 H        -2.422501         3.103697        -2.899459
 H        -3.670256         1.147017        -0.002673
 H        -2.331371        -0.387107         0.895923
 H        -1.496080        -0.920545        -0.728685
 H        -0.514627         3.056527         0.437108
 H        -1.994795         2.482880         1.441516
