19
Iteration:  1585charge 0 multiplicity 1
 O         0.406516         0.360760         0.724006
 C        -0.697095         1.022116         0.130157
 C        -0.696517         1.598895        -1.283861
 C        -1.984381         2.261843        -0.881413
 C        -2.902531         2.678863        -2.012483
 O        -3.447682         1.302195        -2.016538
 C        -2.969495         1.182826        -0.642661
 C        -1.949234         0.088216        -0.031022
 C        -1.416419         2.422788         0.587619
 H         0.703684         0.882500         1.534415
 H         0.080990         2.343749        -1.394203
 H        -0.566626         1.027705        -2.175959
 H        -3.745108         3.395491        -1.961502
 H        -2.361275         2.941665        -2.952220
 H        -3.897624         1.415817         0.034310
 H        -2.301170        -0.271657         1.006274
 H        -1.703358        -0.722082        -0.793432
 H        -0.656136         3.364403         0.800344
 H        -2.120400         2.533847         1.403843
