19
Iteration:  4321charge 0 multiplicity 1
 O         0.369544         0.556475         0.882712
 C        -0.796510         0.955048         0.197341
 C        -0.783733         1.544346        -1.312548
 C        -2.067112         2.229077        -0.822577
 C        -2.891108         2.763813        -1.895180
 O        -3.374792         1.379113        -2.106094
 C        -2.920682         1.042822        -0.779919
 C        -1.901248         0.001925        -0.077793
 C        -1.345257         2.409218         0.510684
 H         0.991456         1.196837         0.620285
 H         0.065621         2.216712        -1.343980
 H        -0.998471         0.900185        -2.213550
 H        -3.658306         3.317310        -1.351772
 H        -2.554822         3.172091        -2.800990
 H        -3.742992         0.942367        -0.065828
 H        -2.370339        -0.444743         0.735511
 H        -1.361707        -0.804677        -0.609862
 H        -0.461571         3.148517         0.520672
 H        -1.973845         2.624874         1.465785
