19
Iteration:  1939
 O         0.369530         0.390685         0.664264
 C        -0.824451         0.970375         0.158437
 C        -0.682310         1.549000        -1.279154
 C        -1.899373         2.319167        -0.876842
 C        -2.931233         2.637620        -2.079944
 O        -3.448025         1.290201        -1.958075
 C        -2.926868         1.149640        -0.596430
 C        -2.039484         0.077280         0.052842
 C        -1.324932         2.521947         0.520996
 H         1.067217         1.060689         0.662544
 H         0.168424         2.173242        -1.389780
 H        -0.723003         0.775315        -2.030864
 H        -3.768972         3.353417        -1.863343
 H        -2.294830         2.960662        -2.945094
 H        -3.635167         1.559398         0.184070
 H        -2.321709        -0.141980         1.112336
 H        -1.763340        -0.700026        -0.607807
 H        -0.491419         3.225984         0.481556
 H        -2.057037         2.723785         1.518558
