19
Iteration:  2013charge 0 multiplicity 1
 O         0.260350         0.480026         0.836095
 C        -0.679703         1.070273         0.115338
 C        -0.613494         1.493314        -1.383625
 C        -1.918511         2.288107        -0.919793
 C        -3.037728         2.660957        -1.829238
 O        -3.450318         1.263233        -1.993375
 C        -2.913931         1.167028        -0.681772
 C        -1.941314         0.114466        -0.022953
 C        -1.270351         2.501917         0.423768
 H        -0.028760        -0.334774         1.210619
 H         0.226214         2.159576        -1.756138
 H        -0.694615         0.620429        -2.072292
 H        -3.719234         3.288292        -1.259012
 H        -2.935951         3.190552        -2.819842
 H        -3.662018         1.548273         0.059767
 H        -2.287964        -0.272187         0.985377
 H        -1.736162        -0.741732        -0.701192
 H        -0.377527         3.108526         0.329991
 H        -1.856515         2.586992         1.339188
