19
Iteration:  2646
 O         0.429181         0.437311         0.796766
 C        -0.715931         0.958348         0.109631
 C        -0.718677         1.569936        -1.386856
 C        -1.980575         2.292939        -0.931722
 C        -3.032280         2.706434        -1.903068
 O        -3.350376         1.288395        -2.002138
 C        -2.891365         1.108125        -0.641456
 C        -2.040666         0.135257         0.034474
 C        -1.299408         2.517597         0.467013
 H         0.117995        -0.282024         1.323560
 H         0.209325         2.201839        -1.373693
 H        -0.700631         0.987408        -2.341409
 H        -3.933372         3.265047        -1.564878
 H        -2.664897         3.170518        -2.788780
 H        -3.933408         1.326188        -0.101168
 H        -2.461008        -0.168558         1.132759
 H        -1.908659        -0.833716        -0.484868
 H        -0.438671         3.123840         0.382292
 H        -2.004580         2.730548         1.344423
