19
Iteration:  2841
 O         0.332887         0.430835         0.636554
 C        -0.769835         1.071119         0.171702
 C        -0.574447         1.561065        -1.235172
 C        -1.946662         2.336807        -0.868973
 C        -2.991176         2.604658        -2.050584
 O        -3.465414         1.252211        -1.991197
 C        -2.924791         1.156834        -0.564889
 C        -1.957585         0.103375        -0.076662
 C        -1.333604         2.517871         0.563288
 H         0.145479         0.031997         1.462028
 H         0.297809         2.293815        -1.135836
 H        -0.610540         0.907444        -2.196284
 H        -3.682139         3.377985        -1.641534
 H        -2.568221         2.812424        -3.058289
 H        -3.811575         1.545630         0.151008
 H        -2.305969        -0.367621         0.768962
 H        -1.687247        -0.653227        -0.752286
 H        -0.375797         2.989329         0.465469
 H        -1.919613         2.508645         1.562119
