19
Iteration:   140
 O         0.456977         0.326862         0.752140
 C        -0.718403         0.969404         0.083751
 C        -0.668017         1.840861        -1.343817
 C        -2.094473         2.417830        -0.760250
 C        -3.141445         2.729017        -1.909810
 O        -3.199320         1.230491        -2.103487
 C        -2.912546         1.121911        -0.707222
 C        -1.906833         0.082044        -0.097321
 C        -1.477336         2.283786         0.665605
 H         0.771335         0.851573         1.576930
 H         0.245817         2.385552        -1.471521
 H        -0.685222         1.296672        -2.248750
 H        -4.144603         3.166567        -1.587457
 H        -2.755721         3.208726        -2.756323
 H        -3.923927         1.230396        -0.234113
 H        -2.377661        -0.323308         0.844865
 H        -1.719924        -0.791871        -0.766900
 H        -0.840956         3.110133         0.857022
 H        -2.264380         2.197503         1.451919
