19
Iteration:   489
 O         0.352173         0.476125         0.786353
 C        -0.789236         1.040484         0.088698
 C        -0.596711         1.695185        -1.208202
 C        -1.954540         2.335824        -0.773400
 C        -2.998668         2.721660        -1.819675
 O        -3.284728         1.227251        -2.103878
 C        -2.932320         1.088394        -0.672781
 C        -2.006101        -0.011922        -0.251933
 C        -1.459115         2.423411         0.584328
 H         1.165609         0.520063         0.273305
 H         0.203862         2.427440        -1.129938
 H        -0.484787         1.094299        -2.137919
 H        -3.930573         3.076248        -1.152250
 H        -2.957296         3.314394        -2.710546
 H        -3.862809         1.329855        -0.133990
 H        -2.389700        -0.448503         0.613328
 H        -1.772254        -0.865413        -0.870379
 H        -0.746449         3.104816         0.692093
 H        -2.074589         2.269915         1.493267
