19
Iteration:  2389charge 0 multiplicity 1
 O         0.271118         0.389393         0.777146
 C        -0.733852         1.052009         0.051101
 C        -0.611831         1.575451        -1.338161
 C        -1.884858         2.326079        -0.934741
 C        -3.070722         2.676388        -1.859143
 O        -3.489358         1.243653        -1.984600
 C        -2.852549         1.158495        -0.639889
 C        -1.955349         0.121386         0.028436
 C        -1.221728         2.462478         0.431422
 H        -0.053345         0.333665         1.718626
 H         0.336563         2.231123        -1.496411
 H        -0.775500         0.879688        -2.223257
 H        -3.800203         3.372817        -1.548702
 H        -2.800776         3.041621        -2.899496
 H        -3.636332         1.393950         0.089729
 H        -2.522945        -0.167146         0.894632
 H        -1.651350        -0.840334        -0.547035
 H        -0.443706         3.192371         0.368826
 H        -1.802163         2.557358         1.311508
