19
Iteration:  1746
 O         0.422487         0.599278         0.874004
 C        -0.698398         1.013241         0.088439
 C        -0.690607         1.517145        -1.361347
 C        -1.988957         2.204434        -0.880044
 C        -2.934559         2.745268        -1.861705
 O        -3.484534         1.356246        -2.141843
 C        -2.968033         1.107727        -0.645445
 C        -1.999281         0.056648         0.004673
 C        -1.276475         2.367399         0.445571
 H         0.287400        -0.277262         1.168268
 H         0.221632         2.193267        -1.530119
 H        -0.743300         0.711279        -2.192031
 H        -3.652209         3.436297        -1.339283
 H        -2.608816         3.159787        -2.835249
 H        -3.870213         1.389091         0.078408
 H        -2.311382        -0.229597         1.106236
 H        -1.816698        -0.890382        -0.548133
 H        -0.561228         3.208730         0.729462
 H        -1.888126         2.469943         1.380288
