19
Iteration:  1882
 O         0.270473         0.422443         0.898211
 C        -0.756907         1.002915         0.136253
 C        -0.688332         1.514051        -1.380527
 C        -1.884328         2.329740        -0.920542
 C        -3.045625         2.740086        -1.916612
 O        -3.438984         1.290141        -1.952216
 C        -2.868653         1.108091        -0.675324
 C        -2.008687         0.000435        -0.051989
 C        -1.227679         2.513669         0.380886
 H         0.904262         1.187655         1.023808
 H         0.177024         2.116384        -1.611743
 H        -0.788091         0.710594        -2.088330
 H        -3.891849         3.224287        -1.373336
 H        -2.839597         3.293135        -2.869116
 H        -3.621962         1.455395         0.103520
 H        -2.251445        -0.477429         0.854649
 H        -1.632600        -0.828496        -0.630290
 H        -0.327431         3.239267         0.507086
 H        -1.888118         2.757704         1.304995
