19
Iteration:  4547
 O         0.347947         0.489459         0.783890
 C        -0.791040         1.069100         0.245992
 C        -0.592815         1.602938        -1.302061
 C        -1.936937         2.284115        -0.813004
 C        -3.073798         2.710640        -1.953548
 O        -3.315369         1.308005        -2.080076
 C        -2.927380         1.108024        -0.764747
 C        -1.971592        -0.042095        -0.133832
 C        -1.417486         2.397731         0.614374
 H         1.045964         1.222455         0.813519
 H         0.222011         2.302452        -1.456047
 H        -0.467082         0.875671        -2.096982
 H        -3.927733         3.265536        -1.499078
 H        -2.796187         3.215504        -2.934500
 H        -3.738288         1.249259         0.043313
 H        -2.550915        -0.358903         0.807907
 H        -1.526402        -0.939556        -0.716392
 H        -0.638943         3.067351         0.894328
 H        -2.223513         2.367177         1.384002
