19
Iteration:  4694
 O         0.452369         0.613675         0.828004
 C        -0.797314         0.989279         0.166646
 C        -0.647981         1.594774        -1.282883
 C        -2.045010         2.283765        -0.840168
 C        -2.876821         2.782794        -1.921654
 O        -3.391190         1.282959        -2.076656
 C        -2.954398         1.054823        -0.760107
 C        -2.015487        -0.050999        -0.126624
 C        -1.449630         2.319398         0.607227
 H         1.066601         1.350395         1.032133
 H         0.222818         2.239653        -1.575100
 H        -0.907473         0.990552        -2.171144
 H        -3.600145         3.567713        -1.521464
 H        -2.260836         3.054252        -2.810373
 H        -3.792155         1.375703        -0.076573
 H        -2.397272        -0.593849         0.780053
 H        -1.697973        -0.797196        -0.860529
 H        -0.718442         3.150977         0.805914
 H        -2.069431         2.220888         1.487216
