19
Iteration:  3789
 O         0.370563         0.533852         0.965737
 C        -0.706162         1.005155         0.126236
 C        -0.729808         1.557795        -1.372354
 C        -1.953851         2.306568        -0.918539
 C        -2.998714         2.714039        -1.964630
 O        -3.416020         1.224033        -2.049892
 C        -2.934407         1.143537        -0.659325
 C        -1.987125         0.083257        -0.022720
 C        -1.261485         2.448580         0.449269
 H         0.325063        -0.464487         0.859575
 H        -0.013863         2.283820        -1.596297
 H        -0.963261         0.852102        -2.164653
 H        -3.774669         3.366790        -1.503926
 H        -2.526472         3.104840        -2.858427
 H        -3.689960         1.422385         0.016232
 H        -2.283090        -0.329833         0.992032
 H        -1.761192        -0.690405        -0.728922
 H        -0.475698         3.230168         0.498536
 H        -1.861505         2.588914         1.401687
