19
Iteration:  4535
 O         0.301431         0.406039         0.837859
 C        -0.769830         0.975831         0.134419
 C        -0.592300         1.679467        -1.274106
 C        -1.994999         2.349469        -0.897561
 C        -3.093384         2.724602        -1.932057
 O        -3.296942         1.240481        -2.092002
 C        -2.824070         1.069563        -0.677901
 C        -1.972139         0.099276        -0.082015
 C        -1.414534         2.415355         0.579798
 H         1.099626         0.965977         0.769201
 H         0.170931         2.463064        -1.111408
 H        -0.520039         1.045002        -2.134815
 H        -3.965780         3.162810        -1.417290
 H        -2.900574         3.179999        -2.943658
 H        -3.814926         1.285379        -0.151761
 H        -2.350856        -0.556137         0.811864
 H        -1.713307        -0.670725        -0.891702
 H        -0.652792         3.231778         0.687929
 H        -2.100839         2.373856         1.461931
