19
Iteration:  3422charge 0 multiplicity 1
 O         0.393274         0.532184         0.917619
 C        -0.746002         1.012042         0.127680
 C        -0.736803         1.558646        -1.373215
 C        -1.956540         2.233033        -0.855294
 C        -2.940080         2.772318        -2.004866
 O        -3.484149         1.400356        -2.007919
 C        -2.952828         1.040869        -0.744379
 C        -1.884572        -0.013282        -0.096841
 C        -1.347185         2.394309         0.552312
 H         0.637781         1.157740         1.577777
 H         0.142269         2.115348        -1.594657
 H        -0.906799         0.661559        -2.006356
 H        -3.603317         3.438407        -1.590097
 H        -2.558152         3.124000        -2.975861
 H        -3.855540         1.079317         0.004338
 H        -2.404178        -0.334461         0.763872
 H        -1.359261        -0.920639        -0.653296
 H        -0.473987         3.094209         0.498575
 H        -2.012401         2.286468         1.376859
