19
Iteration:   822
 O         0.401843         0.572670         0.830457
 C        -0.716086         0.998116         0.109932
 C        -0.654261         1.579720        -1.358932
 C        -1.964968         2.308851        -0.832288
 C        -3.044812         2.731246        -1.914706
 O        -3.340118         1.246003        -2.092941
 C        -2.956089         1.124314        -0.609791
 C        -2.062067         0.073565        -0.086816
 C        -1.336780         2.408584         0.596917
 H         0.770178        -0.307142         0.444629
 H         0.144692         2.343485        -1.463764
 H        -0.789594         0.910983        -2.274997
 H        -3.907763         3.337644        -1.691429
 H        -2.519315         3.047355        -2.801409
 H        -3.797313         1.244884         0.097189
 H        -2.380515        -0.463072         0.846008
 H        -1.853109        -0.713426        -0.904192
 H        -0.426619         3.121462         0.850884
 H        -2.018216         2.288716         1.469389
