19
Iteration:  2554charge 0 multiplicity 1
 O         0.409779         0.544929         0.726782
 C        -0.748788         1.025456         0.141457
 C        -0.651146         1.510731        -1.294932
 C        -1.922915         2.251368        -0.937698
 C        -2.887227         2.726108        -2.068114
 O        -3.634702         1.407571        -1.939740
 C        -2.926549         1.083792        -0.628438
 C        -1.951795         0.015075        -0.003730
 C        -1.307407         2.348335         0.546452
 H         0.376868         0.927053         1.666098
 H         0.256911         2.210454        -1.536087
 H        -0.653625         0.668015        -2.037885
 H        -3.610860         3.575705        -1.882991
 H        -2.425062         2.942366        -3.114886
 H        -3.649140         1.300481         0.229977
 H        -2.325868        -0.387713         0.919524
 H        -1.844182        -0.883618        -0.668197
 H        -0.457988         3.075789         0.607743
 H        -1.936928         2.398313         1.382171
