19
Iteration:   386
 O         0.372781         0.415738         0.848796
 C        -0.727250         1.060107         0.121738
 C        -0.569751         1.785478        -1.223157
 C        -1.946052         2.336514        -0.908070
 C        -3.128317         2.687157        -1.836325
 O        -3.411361         1.303450        -2.078017
 C        -2.854261         1.076167        -0.799730
 C        -1.850611         0.005935        -0.189239
 C        -1.461095         2.354957         0.587801
 H         0.031436        -0.378986         1.241038
 H         0.316597         2.528046        -1.233390
 H        -0.617016         1.080676        -2.113776
 H        -3.893575         3.175484        -1.220606
 H        -3.078774         3.426951        -2.785660
 H        -3.701752         1.324728        -0.114245
 H        -2.237224        -0.411378         0.799428
 H        -1.469395        -0.649878        -0.983613
 H        -0.702422         3.208309         0.926097
 H        -2.189405         2.109922         1.331949
