19
Iteration:  1126charge 0 multiplicity 1
 O         0.486131         0.593598         0.710209
 C        -0.705210         0.999337         0.116535
 C        -0.703028         1.476624        -1.292852
 C        -2.008838         2.224360        -0.791233
 C        -2.901406         2.729623        -1.908820
 O        -3.392702         1.394963        -2.158199
 C        -2.954094         1.065898        -0.663319
 C        -2.023984         0.024857         0.006449
 C        -1.420490         2.414850         0.543408
 H         0.272405         0.455016         1.632798
 H         0.016827         2.276771        -1.516321
 H        -0.780242         0.632100        -2.027738
 H        -3.792950         3.264140        -1.550570
 H        -2.381825         3.250440        -2.706195
 H        -3.693709         1.448643        -0.099084
 H        -2.472198        -0.432198         1.032852
 H        -1.911204        -0.932462        -0.616885
 H        -0.706993         3.292799         0.651224
 H        -2.045579         2.300859         1.455513
