19
Iteration:   307
 O         0.502150         0.574796         0.633538
 C        -0.713852         0.993521         0.155121
 C        -0.666202         1.742515        -1.208467
 C        -2.016651         2.246691        -0.789990
 C        -2.939919         2.736981        -1.891304
 O        -3.302070         1.300147        -2.122087
 C        -2.943590         1.075082        -0.756074
 C        -2.034611         0.004300        -0.152285
 C        -1.514844         2.252705         0.703388
 H         0.291592         0.344795         1.560275
 H         0.000638         2.581077        -1.110397
 H        -0.650168         1.379329        -2.241837
 H        -3.764323         3.220170        -1.385034
 H        -2.533124         3.176238        -2.858026
 H        -3.821130         1.219158        -0.088155
 H        -2.451029        -0.221429         0.848465
 H        -1.833251        -0.904671        -0.803626
 H        -0.819405         3.109213         0.872419
 H        -2.266204         2.070533         1.506867
