19
Iteration:  4265
 O         0.255073         0.296076         0.770567
 C        -0.777713         1.054205         0.127937
 C        -0.561443         1.781296        -1.253325
 C        -1.986776         2.327234        -0.890556
 C        -3.003711         2.659293        -2.043099
 O        -3.478358         1.236612        -2.025499
 C        -2.828995         1.107142        -0.631027
 C        -1.880806         0.017703        -0.053524
 C        -1.406323         2.497375         0.594017
 H         1.063940         0.772359         1.107436
 H         0.260326         2.487578        -1.324185
 H        -0.468063         1.259569        -2.214858
 H        -3.744343         3.392575        -1.763151
 H        -2.591159         2.889647        -3.046238
 H        -3.496263         1.240768         0.186963
 H        -2.285127        -0.301330         0.875999
 H        -1.579127        -0.798643        -0.658998
 H        -0.574787         3.249986         0.595410
 H        -2.286174         2.538154         1.336263
