19
Iteration:  1841
 O         0.383360         0.528404         0.800605
 C        -0.783398         1.073179         0.178599
 C        -0.588064         1.526950        -1.307313
 C        -1.914711         2.221724        -0.966439
 C        -2.886006         2.706175        -2.052463
 O        -3.614551         1.359535        -1.959700
 C        -2.991031         1.148588        -0.627223
 C        -1.951542         0.032908        -0.039762
 C        -1.328498         2.359191         0.581367
 H         1.207381         0.444136         0.266041
 H         0.226137         2.226423        -1.436989
 H        -0.680708         0.795029        -2.120160
 H        -3.520426         3.635373        -1.921165
 H        -2.355287         2.592171        -3.030448
 H        -3.785553         1.375269         0.216922
 H        -2.551329        -0.201841         0.930625
 H        -1.628760        -0.779384        -0.694601
 H        -0.615274         3.094062         0.742985
 H        -1.901446         2.385259         1.617038
