19
Iteration:  1168charge 0 multiplicity 1
 O         0.375374         0.456926         0.686184
 C        -0.751739         0.999313         0.103503
 C        -0.596178         1.673953        -1.239218
 C        -1.998330         2.293940        -0.844145
 C        -2.960235         2.616219        -2.000313
 O        -3.423004         1.237054        -2.033913
 C        -2.881830         1.218392        -0.597701
 C        -2.022250         0.037076        -0.112851
 C        -1.375790         2.485726         0.637877
 H         0.167061        -0.121284         1.505720
 H         0.219412         2.426775        -1.196746
 H        -0.495317         1.074021        -2.168751
 H        -3.741910         3.398672        -1.856679
 H        -2.400131         2.835748        -2.913240
 H        -3.683015         1.352803         0.124737
 H        -2.325677        -0.451996         0.698658
 H        -1.862135        -0.752491        -0.863821
 H        -0.599727         3.249787         0.584168
 H        -2.092368         2.583905         1.500974
