19
Iteration:  3900
 O         0.420870         0.599699         0.816072
 C        -0.740917         1.060332         0.143409
 C        -0.522077         1.520199        -1.310177
 C        -1.933606         2.279647        -0.953877
 C        -2.947481         2.704791        -1.982899
 O        -3.522422         1.220568        -1.964736
 C        -2.919727         1.132649        -0.633419
 C        -2.115188        -0.012011        -0.091275
 C        -1.331906         2.477816         0.479497
 H         0.192318        -0.022413         1.533516
 H         0.290373         2.150490        -1.455018
 H        -0.533499         0.751063        -2.091022
 H        -3.727253         3.311111        -1.406879
 H        -2.477312         3.094487        -2.925927
 H        -3.780710         1.452124         0.051414
 H        -2.511071        -0.292206         0.880115
 H        -1.887515        -0.745728        -0.807522
 H        -0.494778         3.238989         0.622006
 H        -1.927500         2.574223         1.380372
