19
Iteration:  2602charge 0 multiplicity 1
 O         0.415320         0.450925         0.686012
 C        -0.813865         1.009541         0.185120
 C        -0.725540         1.528555        -1.302812
 C        -1.958185         2.356689        -0.812406
 C        -3.018426         2.682304        -2.058950
 O        -3.390562         1.257385        -1.976755
 C        -2.928950         1.185031        -0.655344
 C        -1.957935         0.076672        -0.019434
 C        -1.246719         2.510650         0.540825
 H         0.140014        -0.265681         1.244688
 H         0.154517         2.146067        -1.440140
 H        -0.784288         0.849110        -2.181562
 H        -3.840232         3.345338        -1.767006
 H        -2.696308         2.865894        -3.053680
 H        -3.745613         1.546868         0.130810
 H        -2.496199        -0.338681         0.960730
 H        -1.532385        -0.840613        -0.431549
 H        -0.417020         3.176752         0.503677
 H        -1.991423         2.587586         1.380441
