19
Iteration:  2264charge 0 multiplicity 1
 O         0.374741         0.363094         0.757436
 C        -0.757060         0.985515         0.139823
 C        -0.715466         1.569332        -1.371351
 C        -1.956451         2.405730        -0.823969
 C        -3.101738         2.720927        -1.928282
 O        -3.315749         1.177930        -1.991447
 C        -2.848956         1.184681        -0.664764
 C        -2.037005         0.055695        -0.022595
 C        -1.274026         2.562482         0.444107
 H         0.203046         0.075564         1.727935
 H         0.147911         2.263307        -1.392385
 H        -0.881658         0.895484        -2.274750
 H        -3.985208         3.248507        -1.444714
 H        -2.896184         3.093400        -3.024482
 H        -3.661427         1.518534         0.038078
 H        -2.474518        -0.220021         0.976085
 H        -1.837142        -0.778709        -0.601954
 H        -0.207541         3.002880         0.330893
 H        -1.670097         3.021357         1.350796
