19
Iteration:  3519
 O         0.497240         0.595144         0.740846
 C        -0.751146         0.980218         0.174723
 C        -0.712771         1.512332        -1.245355
 C        -2.043411         2.278577        -0.776761
 C        -2.816512         2.689901        -1.966229
 O        -3.459311         1.338642        -2.086371
 C        -3.016425         1.040005        -0.680558
 C        -2.010622        -0.003588         0.040237
 C        -1.345366         2.519084         0.506142
 H         0.435528        -0.326401         0.903827
 H         0.105540         2.237525        -1.460311
 H        -0.951374         0.926774        -2.227757
 H        -3.633407         3.467105        -1.977188
 H        -2.117698         3.064404        -2.826471
 H        -3.831386         1.322772        -0.059445
 H        -2.431254        -0.411862         0.894169
 H        -1.834119        -0.836092        -0.657186
 H        -0.637725         3.324023         0.153004
 H        -1.966430         2.692359         1.385628
