19
Iteration:  3463charge 0 multiplicity 1
 O         0.350160         0.355431         0.721017
 C        -0.753388         0.991214         0.167334
 C        -0.573103         1.660185        -1.244040
 C        -1.927956         2.351725        -0.983882
 C        -3.042670         2.692091        -1.945837
 O        -3.336500         1.172007        -1.971669
 C        -2.947761         1.150506        -0.683715
 C        -2.025271         0.096926        -0.077568
 C        -1.332894         2.497042         0.528378
 H         0.266185         0.701597         1.674713
 H         0.176644         2.526603        -1.230873
 H        -0.544802         1.055361        -2.208318
 H        -3.905304         3.090428        -1.298167
 H        -2.878779         3.029812        -3.030834
 H        -3.803198         1.408612        -0.002088
 H        -2.361924        -0.203723         0.887816
 H        -1.913537        -0.701870        -0.715020
 H        -0.494492         3.174972         0.715831
 H        -2.128587         2.786516         1.303140
