19
Iteration:  1601
 O         0.510959         0.471795         0.720572
 C        -0.767449         0.929062         0.122113
 C        -0.698707         1.585777        -1.324268
 C        -2.035572         2.294980        -0.795399
 C        -2.862809         2.788829        -2.022219
 O        -3.441341         1.320151        -2.084201
 C        -2.912132         1.063611        -0.648324
 C        -2.043244         0.035952         0.052856
 C        -1.385069         2.442476         0.521314
 H         0.409936         0.814884         1.700851
 H         0.175773         2.281472        -1.458717
 H        -0.951241         0.838523        -2.134205
 H        -3.566892         3.568779        -1.715363
 H        -2.408225         3.067647        -2.980475
 H        -3.810580         1.325003         0.048636
 H        -2.483721        -0.332178         0.987276
 H        -1.857033        -0.889003        -0.471184
 H        -0.727645         3.175318         0.713107
 H        -2.041711         2.382177         1.466974
