19
Iteration:  4083charge 0 multiplicity 1
 O         0.397510         0.534159         0.800274
 C        -0.733037         1.013428         0.167388
 C        -0.635860         1.615834        -1.310233
 C        -1.936138         2.177398        -0.892815
 C        -2.979385         2.729786        -1.955782
 O        -3.487234         1.360072        -2.010284
 C        -2.929180         0.995209        -0.715965
 C        -1.956410         0.036041        -0.089066
 C        -1.414762         2.473108         0.541433
 H         0.367352         0.440227         1.727742
 H         0.091821         2.424740        -1.525339
 H        -0.383026         0.782759        -2.066001
 H        -3.667213         3.410894        -1.537058
 H        -2.667521         3.055213        -2.904757
 H        -3.684804         1.245934        -0.000113
 H        -2.248335        -0.500105         0.856715
 H        -1.490634        -0.892058        -0.681512
 H        -0.508195         3.094098         0.370198
 H        -1.973911         2.737505         1.398414
