19
Iteration:  3584
 O         0.195538         0.413670         0.959051
 C        -0.760863         1.031874         0.142414
 C        -0.605291         1.606172        -1.347759
 C        -1.895907         2.316616        -0.963800
 C        -2.986827         2.712140        -1.988373
 O        -3.521494         1.227191        -1.942433
 C        -2.895328         1.141409        -0.609983
 C        -1.922044         0.043346        -0.057913
 C        -1.249504         2.505773         0.397847
 H         1.030437         0.310525         0.438454
 H         0.169183         2.375295        -1.223735
 H        -0.522895         0.950938        -2.278703
 H        -3.927560         3.227465        -1.570467
 H        -2.793988         3.012280        -3.095733
 H        -3.596312         1.404285         0.152584
 H        -2.114701        -0.335693         0.923825
 H        -1.583930        -0.722730        -0.749921
 H        -0.366444         3.130421         0.293379
 H        -1.913982         2.696527         1.207100
