19
Iteration:  1881
 O         0.279586         0.424495         0.901329
 C        -0.750974         0.997653         0.142162
 C        -0.689535         1.513060        -1.377739
 C        -1.884822         2.328396        -0.931712
 C        -3.037964         2.743684        -1.910623
 O        -3.442446         1.292855        -1.954342
 C        -2.875489         1.110715        -0.666784
 C        -2.014060        -0.005782        -0.053428
 C        -1.241205         2.520220         0.386146
 H         0.882299         1.189869         0.978256
 H         0.202867         2.115215        -1.615008
 H        -0.785394         0.720180        -2.114711
 H        -3.891876         3.223696        -1.405294
 H        -2.843269         3.276731        -2.860492
 H        -3.587519         1.442780         0.075412
 H        -2.244025        -0.489485         0.824242
 H        -1.635041        -0.850295        -0.626023
 H        -0.305715         3.238108         0.493580
 H        -1.876929         2.748432         1.266337
