19
Iteration:  4348charge 0 multiplicity 1
 O         0.403971         0.479020         0.799952
 C        -0.669010         1.033129         0.107581
 C        -0.608458         1.615309        -1.271971
 C        -2.129956         2.233806        -0.818594
 C        -2.871228         2.674130        -1.995913
 O        -3.455169         1.394559        -2.133792
 C        -2.955459         1.069385        -0.679956
 C        -1.973147         0.003062        -0.023943
 C        -1.427149         2.421775         0.596971
 H         1.101034         1.104072         0.760762
 H         0.136199         2.425883        -1.268308
 H        -0.588415         0.835390        -1.983462
 H        -3.718696         3.376589        -1.663330
 H        -2.395359         3.039434        -2.968421
 H        -3.775973         1.145693         0.046783
 H        -2.267096        -0.487808         1.010839
 H        -1.694618        -0.830785        -0.706025
 H        -0.861342         3.198605         1.009490
 H        -2.120258         2.203258         1.349196
