19
Iteration:  1093charge 0 multiplicity 1
 O         0.371329         0.495403         0.784645
 C        -0.772509         0.990941         0.113250
 C        -0.681801         1.547203        -1.275981
 C        -2.017658         2.301043        -0.799218
 C        -3.039297         2.761014        -1.898577
 O        -3.390772         1.278506        -2.097101
 C        -2.876913         1.112311        -0.719715
 C        -1.963513         0.019655        -0.071757
 C        -1.274121         2.484682         0.508062
 H         0.239906         0.536001         1.707775
 H         0.210915         2.162131        -1.416490
 H        -0.785900         0.850828        -2.136835
 H        -3.985373         3.166423        -1.560481
 H        -2.698528         3.287829        -2.771082
 H        -3.605284         1.245070        -0.027720
 H        -2.356061        -0.390484         0.982914
 H        -1.719452        -0.882660        -0.762563
 H        -0.292499         2.994248         0.460839
 H        -1.798726         2.641986         1.464165
