19
Iteration:  2670
 O         0.415564         0.580231         0.664644
 C        -0.747077         1.053765         0.166974
 C        -0.677803         1.425695        -1.291961
 C        -1.913897         2.270465        -0.936396
 C        -2.910694         2.715357        -1.998694
 O        -3.520484         1.310974        -1.994366
 C        -3.000853         1.177207        -0.657171
 C        -1.981031         0.014354        -0.035860
 C        -1.278849         2.443729         0.649736
 H         0.232834         0.048425         1.505581
 H         0.257302         1.955326        -1.352485
 H        -0.685579         0.719105        -2.101529
 H        -3.801769         3.286712        -1.807972
 H        -2.493274         3.043818        -2.940892
 H        -3.866861         1.601953         0.076503
 H        -2.304755        -0.498838         0.993669
 H        -1.614444        -0.824667        -0.697279
 H        -0.460738         3.202485         0.593140
 H        -2.074534         2.600721         1.462479
