19
Iteration:   632charge 0 multiplicity 1
 O         0.384812         0.471580         0.810346
 C        -0.703242         1.062684         0.126806
 C        -0.658046         1.745143        -1.251436
 C        -2.047914         2.322005        -0.797940
 C        -3.082931         2.722711        -1.951306
 O        -3.358803         1.229245        -2.105250
 C        -2.856283         1.096649        -0.697061
 C        -1.983294         0.001646        -0.105563
 C        -1.326119         2.419686         0.621345
 H         0.388384        -0.362618         0.402395
 H         0.177966         2.537746        -1.307259
 H        -0.788780         1.034974        -2.099391
 H        -3.881383         3.296944        -1.609404
 H        -2.591531         3.055743        -2.790393
 H        -3.779573         1.361870        -0.111821
 H        -2.377232        -0.506162         0.782924
 H        -1.742380        -0.811742        -0.791425
 H        -0.491976         3.114316         0.686051
 H        -2.044482         2.219186         1.442298
