19
Iteration:  3847charge 0 multiplicity 1
 O         0.425179         0.495694         0.752847
 C        -0.758996         1.076301         0.198935
 C        -0.695875         1.542181        -1.272539
 C        -1.966454         2.240268        -0.882889
 C        -2.905709         2.582510        -2.026951
 O        -3.479275         1.301746        -2.040368
 C        -2.953346         1.107652        -0.652454
 C        -1.993295         0.096935        -0.010623
 C        -1.333468         2.569225         0.581134
 H         0.497798        -0.454946         0.910128
 H         0.097857         2.279811        -1.507612
 H        -0.817964         0.948603        -2.196092
 H        -3.574782         3.342524        -1.785860
 H        -2.331121         2.871281        -2.988737
 H        -3.778945         1.358924        -0.082169
 H        -2.373473        -0.374901         0.997997
 H        -1.638764        -0.803067        -0.622762
 H        -0.518213         3.345696         0.492068
 H        -2.025803         2.745106         1.391770
