19
Iteration:  4927
 O         0.410495         0.515892         0.842208
 C        -0.756198         0.982899         0.164624
 C        -0.659312         1.650498        -1.248780
 C        -1.989015         2.241654        -0.829771
 C        -2.903149         2.735414        -2.060481
 O        -3.501504         1.381341        -2.114392
 C        -2.952094         1.061538        -0.715131
 C        -1.900397        -0.052694        -0.089899
 C        -1.431844         2.391429         0.673085
 H         1.157448         1.186555         0.843688
 H         0.288372         2.208932        -1.357234
 H        -0.774167         1.017472        -2.162811
 H        -3.801771         3.361389        -1.795865
 H        -2.407086         3.000488        -2.986711
 H        -3.777819         1.073599         0.059068
 H        -2.306240        -0.579094         0.818676
 H        -1.527331        -0.719031        -0.857933
 H        -0.878087         3.311034         0.679302
 H        -2.031154         2.248509         1.613257
