19
Iteration:   794
 O         0.418688         0.578163         0.695752
 C        -0.736322         0.993724         0.118719
 C        -0.648260         1.563575        -1.275308
 C        -1.988782         2.284251        -0.808194
 C        -2.902597         2.762442        -2.006324
 O        -3.451280         1.345162        -2.030352
 C        -2.958986         1.041552        -0.712642
 C        -1.941607        -0.032731        -0.008789
 C        -1.445530         2.495380         0.635000
 H         0.549455        -0.390711         0.754608
 H         0.069053         2.365825        -1.239126
 H        -0.783280         0.959575        -2.130404
 H        -3.684282         3.583671        -1.782728
 H        -2.343150         2.925890        -2.973746
 H        -3.785320         0.943811         0.023484
 H        -2.311796        -0.434212         0.913221
 H        -1.648423        -0.955705        -0.468138
 H        -0.673747         3.154535         0.622175
 H        -2.015221         2.381704         1.543143
