19
Iteration:  1574charge 0 multiplicity 1
 O         0.302095         0.348947         0.710276
 C        -0.780221         1.084249         0.154146
 C        -0.559296         1.666726        -1.270546
 C        -1.991269         2.316986        -0.840412
 C        -2.947699         2.610480        -2.051303
 O        -3.439125         1.286169        -1.994408
 C        -2.930979         1.116561        -0.608426
 C        -1.970349         0.117997        -0.109738
 C        -1.356001         2.438099         0.564732
 H         0.851478         0.951282         1.329410
 H         0.171946         2.437331        -1.425635
 H        -0.631338         0.807826        -1.866879
 H        -3.666068         3.360709        -1.650962
 H        -2.524591         2.837944        -3.051887
 H        -3.766898         1.525438         0.139014
 H        -2.341864        -0.429594         0.846057
 H        -1.693385        -0.775451        -0.764015
 H        -0.350938         3.108744         0.752925
 H        -2.045289         2.390541         1.392756
