19
Iteration:  2959charge 0 multiplicity 1
 O         0.295351         0.393908         0.678319
 C        -0.741406         1.055995         0.058599
 C        -0.655139         1.735963        -1.252147
 C        -1.984898         2.336224        -0.849696
 C        -2.953872         2.577183        -2.029246
 O        -3.419912         1.226133        -2.001171
 C        -2.893988         1.156200        -0.608854
 C        -1.969914         0.079116        -0.036815
 C        -1.291082         2.498035         0.601111
 H        -0.155583        -0.385572         1.162796
 H         0.026097         2.572661        -1.227188
 H        -0.711631         1.190667        -2.163856
 H        -3.694734         3.394691        -1.945623
 H        -2.275983         2.654557        -2.940733
 H        -3.677320         1.466063         0.136653
 H        -2.309798        -0.178811         1.109040
 H        -1.684625        -0.849030        -0.675689
 H        -0.324203         3.040425         0.751556
 H        -1.929455         2.504342         1.578188
