19
Iteration:  1366
 O         0.481386         0.666132         0.864151
 C        -0.718783         0.990212         0.110764
 C        -0.667871         1.601511        -1.314119
 C        -2.029962         2.159324        -0.861944
 C        -2.912170         2.793396        -1.903497
 O        -3.429274         1.395069        -2.153095
 C        -3.055189         1.001714        -0.592092
 C        -1.994421        -0.034980        -0.098851
 C        -1.347612         2.354020         0.506584
 H         0.255605        -0.019499         1.438291
 H        -0.021205         2.452748        -1.510604
 H        -0.739673         0.843500        -2.111190
 H        -3.651757         3.553093        -1.594584
 H        -2.201922         3.162806        -2.657054
 H        -3.865662         1.079929         0.052792
 H        -2.261824        -0.610649         0.909933
 H        -1.731038        -0.803839        -0.946641
 H        -0.560911         3.156943         0.740039
 H        -1.954492         2.426362         1.356168
