19
Iteration:  2331
 O         0.453013         0.622062         0.666195
 C        -0.798007         0.942877         0.094314
 C        -0.665649         1.487770        -1.299523
 C        -1.910906         2.283986        -0.910120
 C        -2.883909         2.697692        -2.088278
 O        -3.555899         1.371888        -1.947998
 C        -2.968108         1.192565        -0.616813
 C        -2.006187         0.006255         0.041570
 C        -1.276336         2.379490         0.614496
 H         0.222642         0.226950         1.494651
 H         0.172403         2.217456        -1.389973
 H        -0.723851         0.694243        -2.130603
 H        -3.662277         3.326725        -1.785983
 H        -2.398275         2.689473        -3.141696
 H        -3.773294         1.405044         0.203281
 H        -2.628214        -0.407564         0.856226
 H        -1.702342        -0.800610        -0.572237
 H        -0.383348         2.952125         0.679947
 H        -1.980657         2.510304         1.483646
