19
Iteration:  3277charge 0 multiplicity 1
 O         0.407745         0.585335         0.803362
 C        -0.674138         1.059215         0.131336
 C        -0.635576         1.492013        -1.299796
 C        -1.995623         2.156081        -0.896806
 C        -2.844954         2.831098        -1.881908
 O        -3.523729         1.385369        -2.082838
 C        -3.011657         1.020613        -0.676922
 C        -2.009546         0.009495        -0.042308
 C        -1.433852         2.309989         0.526094
 H         1.142484         1.286104         0.929581
 H         0.233340         2.242544        -1.371716
 H        -0.390572         0.758966        -2.068921
 H        -3.525140         3.572425        -1.530093
 H        -2.324546         2.925636        -2.893192
 H        -3.728774         1.403429         0.004591
 H        -2.385747        -0.502402         0.939320
 H        -1.645197        -0.692810        -0.741849
 H        -0.698101         3.113374         0.662338
 H        -2.180203         2.412042         1.443756
