19
Iteration:  2597charge 0 multiplicity 1
 O         0.443468         0.472553         0.681333
 C        -0.767386         0.987196         0.175961
 C        -0.703404         1.550714        -1.267009
 C        -1.972323         2.346502        -0.856499
 C        -2.982441         2.682335        -2.062145
 O        -3.421245         1.253649        -1.963545
 C        -2.916491         1.211158        -0.615546
 C        -2.034219        -0.000693        -0.015648
 C        -1.292977         2.524918         0.527510
 H         0.298592        -0.262973         1.336142
 H         0.213781         2.194417        -1.513823
 H        -0.894457         0.808017        -2.076485
 H        -3.767054         3.468684        -1.853120
 H        -2.668887         2.979349        -3.136687
 H        -3.757132         1.493825        -0.003585
 H        -2.452344        -0.316052         0.886482
 H        -1.593998        -0.847157        -0.609457
 H        -0.399810         3.211519         0.667852
 H        -1.913562         2.622797         1.398954
