19
Iteration:    87
 O         0.531658         0.662731         0.840932
 C        -0.739482         0.921311         0.166388
 C        -0.731082         1.659006        -1.206935
 C        -2.083042         2.268420        -0.817855
 C        -2.999075         2.786874        -1.985977
 O        -3.395679         1.319351        -2.077171
 C        -2.929303         1.082019        -0.684172
 C        -1.928535        -0.046317        -0.214944
 C        -1.419347         2.333240         0.631547
 H         0.817335        -0.304410         0.601583
 H         0.013325         2.445262        -1.236096
 H        -0.689804         0.998266        -2.068768
 H        -3.864223         3.485050        -1.738273
 H        -2.522551         3.181735        -2.884566
 H        -3.773332         1.212378         0.042807
 H        -2.392898        -0.698400         0.545673
 H        -1.616818        -0.720660        -1.052925
 H        -0.672914         3.007922         0.724731
 H        -2.124692         2.229557         1.415366
