19
Iteration:  1457charge 0 multiplicity 1
 O         0.360354         0.494289         0.696436
 C        -0.802965         1.017058         0.133101
 C        -0.701946         1.672738        -1.265965
 C        -2.012014         2.299910        -0.823020
 C        -2.967317         2.686198        -2.003023
 O        -3.332872         1.264599        -2.059608
 C        -2.906531         1.129733        -0.659593
 C        -1.914219         0.091384        -0.081449
 C        -1.349504         2.405255         0.659930
 H         0.054117        -0.314976         1.125464
 H         0.248718         2.308380        -1.189100
 H        -0.882823         0.953019        -2.095794
 H        -3.884035         3.247173        -1.754423
 H        -2.565460         2.883105        -3.022328
 H        -3.736698         1.343569        -0.071426
 H        -2.350044        -0.417054         0.814208
 H        -1.485080        -0.670781        -0.746270
 H        -0.608504         3.183555         0.796668
 H        -1.984271         2.315868         1.650266
