19
Iteration:  1962
 O         0.438289         0.541996         0.728065
 C        -0.750306         1.041221         0.209050
 C        -0.736579         1.420749        -1.332523
 C        -1.919424         2.264265        -0.886255
 C        -2.823881         2.672759        -2.044714
 O        -3.483023         1.302702        -1.979525
 C        -3.012321         1.148115        -0.554028
 C        -2.076085         0.110963        -0.012970
 C        -1.339979         2.444440         0.542873
 H         1.134021         0.525494         0.009010
 H         0.013270         2.151327        -1.470175
 H        -0.758110         0.697501        -2.137139
 H        -3.489145         3.573146        -1.869361
 H        -2.244863         2.732229        -2.993263
 H        -3.832094         1.439987         0.175527
 H        -2.450245        -0.265489         0.966290
 H        -1.790061        -0.578328        -0.775055
 H        -0.567951         3.182581         0.714094
 H        -2.013961         2.391696         1.573436
