19
Iteration:  1130
 O         0.480945         0.604729         0.688540
 C        -0.726529         0.944854         0.124510
 C        -0.682001         1.462729        -1.317496
 C        -2.005929         2.248586        -0.811537
 C        -2.906232         2.755105        -1.924414
 O        -3.403173         1.366327        -2.146590
 C        -2.932555         1.080407        -0.646108
 C        -1.986519         0.024506        -0.003862
 C        -1.447571         2.407238         0.601466
 H         0.244061         0.422708         1.632633
 H         0.034049         2.258221        -1.488261
 H        -0.754514         0.630122        -2.003788
 H        -3.783241         3.307778        -1.594267
 H        -2.294631         3.197443        -2.743824
 H        -3.823173         1.625275        -0.091363
 H        -2.480096        -0.286296         1.028553
 H        -1.871854        -0.859041        -0.628821
 H        -0.813700         3.311016         0.680353
 H        -2.057905         2.371191         1.476392
