19
Iteration:  3294charge 0 multiplicity 1
 O         0.544154         0.546434         0.769212
 C        -0.750511         0.967444         0.184734
 C        -0.669604         1.493786        -1.283113
 C        -1.982386         2.232547        -0.851790
 C        -2.893856         2.718480        -1.950698
 O        -3.421240         1.378247        -2.076147
 C        -2.936179         1.138434        -0.704421
 C        -2.081721        -0.016384        -0.066948
 C        -1.443455         2.393626         0.583856
 H         1.029096         1.408585         0.960108
 H         0.055529         2.223191        -1.638362
 H        -0.933399         0.772848        -2.085009
 H        -3.801403         3.372989        -1.590897
 H        -2.470482         3.164991        -2.825844
 H        -3.853902         1.338460        -0.036242
 H        -2.542930        -0.357387         0.818006
 H        -1.878522        -0.929321        -0.685729
 H        -0.918202         3.327430         0.916980
 H        -2.164754         2.339064         1.357881
