19
Iteration:  4691charge 0 multiplicity 1
 O         0.453601         0.595983         0.844106
 C        -0.809606         0.999253         0.135436
 C        -0.653103         1.584808        -1.294421
 C        -2.046585         2.279685        -0.814013
 C        -2.884906         2.776012        -1.912473
 O        -3.400557         1.294560        -2.093986
 C        -2.960904         1.057139        -0.757937
 C        -1.979254        -0.044392        -0.113592
 C        -1.427342         2.353422         0.631539
 H         1.039384         1.304944         1.001743
 H         0.141231         2.185545        -1.504875
 H        -0.813899         0.933023        -2.156917
 H        -3.643075         3.511807        -1.684165
 H        -2.314241         2.992380        -2.785878
 H        -3.840973         1.395869        -0.151085
 H        -2.312571        -0.494984         0.789461
 H        -1.688666        -0.795266        -0.980241
 H        -0.756958         3.099362         0.781148
 H        -2.132628         2.140679         1.417893
