19
Iteration:  4658
 O         0.303294         0.328955         0.854576
 C        -0.791685         1.113150         0.135157
 C        -0.668282         1.782462        -1.280190
 C        -1.994391         2.279287        -0.836214
 C        -2.991190         2.744805        -1.918990
 O        -3.376372         1.226795        -2.084320
 C        -2.869560         1.049495        -0.755129
 C        -1.887795         0.008962        -0.070433
 C        -1.395221         2.461332         0.563695
 H         1.086962         0.901657         0.862772
 H         0.103214         2.456925        -1.252923
 H        -0.627157         1.072571        -2.097285
 H        -3.888399         3.293377        -1.727131
 H        -2.696258         3.004905        -2.913387
 H        -3.747458         1.264311        -0.086659
 H        -2.236143        -0.433798         0.838529
 H        -1.556499        -0.811457        -0.826344
 H        -0.687446         3.204696         0.614007
 H        -2.020391         2.468072         1.432503
