19
Iteration:  3078charge 0 multiplicity 1
 O         0.217866         0.349653         0.819191
 C        -0.782569         0.919518         0.056940
 C        -0.543440         1.699024        -1.259513
 C        -1.914447         2.322769        -0.893624
 C        -2.989919         2.681947        -2.027429
 O        -3.438356         1.287409        -1.893244
 C        -2.879157         1.099531        -0.640387
 C        -1.955120         0.025511        -0.115485
 C        -1.366591         2.534493         0.526303
 H         0.910472         0.970703         1.003103
 H         0.253451         2.445782        -1.210781
 H        -0.744492         1.140769        -2.166402
 H        -3.814121         3.461471        -1.911976
 H        -2.689333         2.914875        -3.120829
 H        -3.525654         1.330860         0.291138
 H        -2.258402        -0.484175         0.770089
 H        -1.602333        -0.728891        -0.872244
 H        -0.491371         3.252539         0.472270
 H        -1.956443         2.693870         1.395453
