19
Iteration:  1838
 O         0.382415         0.519752         0.804006
 C        -0.782575         1.037546         0.163943
 C        -0.603193         1.555986        -1.328936
 C        -1.913854         2.229045        -0.932585
 C        -2.901621         2.693179        -2.085242
 O        -3.620035         1.351219        -1.962982
 C        -2.963359         1.153479        -0.629884
 C        -1.946721         0.050095        -0.018528
 C        -1.343470         2.367519         0.607554
 H         1.174689         0.375159         0.213162
 H         0.250700         2.204768        -1.400306
 H        -0.703484         0.852229        -2.119604
 H        -3.420892         3.666185        -1.973762
 H        -2.339781         2.626107        -3.042894
 H        -3.785865         1.386599         0.211082
 H        -2.459575        -0.261349         0.809570
 H        -1.678142        -0.841056        -0.602663
 H        -0.507904         3.177864         0.783063
 H        -1.895436         2.433258         1.576840
