19
Iteration:   737charge 0 multiplicity 1
 O         0.295217         0.460390         0.774118
 C        -0.745876         1.000689         0.078845
 C        -0.621546         1.662824        -1.299498
 C        -1.894517         2.421707        -0.850917
 C        -3.058996         2.586425        -1.837396
 O        -3.389985         1.280301        -2.009917
 C        -2.793843         1.132949        -0.624400
 C        -1.980604        -0.019686        -0.186222
 C        -1.398825         2.425120         0.504914
 H         0.179127         0.714137         1.686158
 H         0.143525         2.316829        -1.438303
 H        -0.565242         1.002615        -2.100023
 H        -3.920586         3.219353        -1.473038
 H        -2.714104         3.112260        -2.792971
 H        -3.704785         1.469265        -0.104418
 H        -2.325314        -0.401865         0.739054
 H        -1.742770        -0.790012        -0.944815
 H        -0.566871         3.001060         0.605869
 H        -1.946547         2.576284         1.389124
