19
Iteration:  3052
 O         0.426510         0.505669         0.839963
 C        -0.731926         1.018009         0.161250
 C        -0.636504         1.512253        -1.332222
 C        -1.924870         2.238758        -0.910569
 C        -2.890440         2.726437        -1.967450
 O        -3.557111         1.349318        -2.018466
 C        -3.010862         1.130219        -0.676195
 C        -1.990745         0.060309        -0.120333
 C        -1.341983         2.376189         0.607258
 H         0.730714         1.076975         1.516260
 H         0.158377         2.324833        -1.566677
 H        -0.801541         0.664370        -2.126121
 H        -3.604579         3.519836        -1.736587
 H        -2.492124         2.898136        -2.938696
 H        -3.671535         1.427442         0.042615
 H        -2.282601        -0.699505         0.631353
 H        -1.628454        -0.496961        -0.968444
 H        -0.549509         3.218188         0.590639
 H        -2.058834         2.234198         1.493867
