19
Iteration:  1191
 O         0.325256         0.319083         0.783427
 C        -0.701061         1.084692         0.137395
 C        -0.642508         1.724455        -1.245487
 C        -2.004678         2.360552        -0.911660
 C        -2.952721         2.629886        -1.958680
 O        -3.422552         1.250439        -1.999164
 C        -2.966489         1.099983        -0.607616
 C        -1.915134         0.070726        -0.140821
 C        -1.332644         2.536104         0.525671
 H        -0.053786        -0.248726         1.431094
 H         0.112391         2.497388        -1.466643
 H        -0.481309         0.948958        -2.061156
 H        -3.840203         3.239123        -1.694406
 H        -2.592871         3.053757        -2.898548
 H        -3.741344         1.177523         0.220102
 H        -2.197235        -0.508665         0.578247
 H        -1.470723        -0.644346        -0.866196
 H        -0.539670         3.370602         0.507330
 H        -2.068125         2.519760         1.337801
