19
Iteration:  1646
 O         0.443928         0.502312         0.806827
 C        -0.734747         0.999398         0.168794
 C        -0.686868         1.528384        -1.341973
 C        -1.900291         2.323594        -0.901057
 C        -3.036532         2.734085        -1.898009
 O        -3.346678         1.277669        -2.051642
 C        -2.919717         1.158118        -0.655382
 C        -2.060356         0.007313        -0.054705
 C        -1.348270         2.488242         0.470296
 H         0.125061        -0.340562         1.303193
 H         0.174696         2.229610        -1.497742
 H        -0.919031         0.690734        -2.089467
 H        -3.939769         3.286117        -1.557820
 H        -2.604269         3.239046        -2.771067
 H        -3.808585         1.413208         0.104196
 H        -2.427854        -0.422565         0.867623
 H        -1.964217        -0.871691        -0.669154
 H        -0.525263         3.198489         0.632931
 H        -2.027566         2.827055         1.355627
