19
Iteration:  2701
 O         0.451365         0.493567         0.737858
 C        -0.665855         1.009046         0.132147
 C        -0.675059         1.599344        -1.277644
 C        -1.959482         2.262893        -0.919432
 C        -2.866067         2.647854        -2.056291
 O        -3.560324         1.389486        -1.918433
 C        -2.977268         1.190601        -0.597429
 C        -2.040932        -0.068522        -0.081135
 C        -1.342087         2.389403         0.515457
 H         0.371254         0.819971         1.619263
 H         0.181244         2.365210        -1.305065
 H        -0.592560         0.960789        -2.231814
 H        -3.699490         3.399446        -1.969663
 H        -2.168082         2.714462        -2.859287
 H        -3.762027         1.635061         0.128396
 H        -2.271211        -0.550019         1.037629
 H        -1.877252        -0.966402        -0.716821
 H        -0.647919         3.180937         0.450295
 H        -2.084504         2.538551         1.367108
