19
Iteration:  3266
 O         0.333363         0.549003         0.866572
 C        -0.773080         0.963435         0.119258
 C        -0.586797         1.543642        -1.286905
 C        -1.978513         2.156504        -0.883825
 C        -2.879044         2.745047        -1.935311
 O        -3.567672         1.419934        -2.061082
 C        -2.951809         1.042197        -0.667278
 C        -1.889387         0.010388        -0.084758
 C        -1.337675         2.404151         0.514038
 H         0.973784         1.268116         0.774037
 H         0.031218         2.478043        -1.378998
 H        -0.591817         0.870350        -2.140206
 H        -3.567956         3.489377        -1.558689
 H        -2.496621         3.192652        -2.925675
 H        -3.778791         1.107186        -0.003194
 H        -2.253412        -0.412948         0.933905
 H        -1.708782        -0.834812        -0.694693
 H        -0.580441         3.177783         0.659207
 H        -2.142368         2.368208         1.365988
