19
Iteration:   438
 O         0.441321         0.581606         0.829385
 C        -0.744947         1.001260         0.148512
 C        -0.710737         1.729483        -1.281459
 C        -2.092021         2.201893        -0.723308
 C        -2.925304         2.778369        -1.915678
 O        -3.437360         1.339670        -2.151610
 C        -2.954278         1.016113        -0.719393
 C        -1.895344         0.002336        -0.191196
 C        -1.377899         2.305793         0.690058
 H         0.806831        -0.251811         0.653482
 H         0.004712         2.536342        -1.376070
 H        -0.589242         1.066443        -2.111600
 H        -3.660935         3.564101        -1.886442
 H        -2.246114         3.124082        -2.689076
 H        -3.923266         0.990414        -0.215771
 H        -2.400251        -0.583512         0.616229
 H        -1.528946        -0.703927        -0.999682
 H        -0.686937         3.238689         0.732770
 H        -2.048025         2.455312         1.566808
