19
Iteration:  1900charge 0 multiplicity 1
 O         0.174379         0.356415         0.838766
 C        -0.675200         1.077903         0.083214
 C        -0.648716         1.508269        -1.414948
 C        -1.965007         2.287858        -0.945654
 C        -3.083721         2.660636        -1.872763
 O        -3.413849         1.250273        -2.040594
 C        -2.889683         1.164589        -0.582405
 C        -1.919624         0.201753        -0.026340
 C        -1.188689         2.471507         0.523468
 H         0.674482         1.027205         1.414927
 H         0.241682         2.212875        -1.636382
 H        -0.753673         0.834475        -2.307976
 H        -3.903616         3.264337        -1.493496
 H        -2.894287         3.001578        -2.863851
 H        -3.726165         1.373288         0.029179
 H        -2.302598        -0.178299         0.952561
 H        -1.762028        -0.786241        -0.584546
 H        -0.286360         3.107337         0.355416
 H        -1.626548         2.554250         1.408894
