19
Iteration:  3612
 O         0.363920         0.422074         0.850043
 C        -0.701547         1.100934         0.198250
 C        -0.642609         1.448301        -1.322791
 C        -1.927017         2.270523        -0.878617
 C        -2.875289         2.637339        -2.060539
 O        -3.554826         1.331848        -1.962888
 C        -2.960650         1.150305        -0.599944
 C        -2.025511         0.032946        -0.121287
 C        -1.332743         2.560531         0.509790
 H         1.137581         1.085689         0.810019
 H         0.130324         2.221604        -1.598409
 H        -0.547393         0.715343        -2.080010
 H        -3.705780         3.252851        -1.906122
 H        -2.547929         2.849151        -3.020288
 H        -3.827502         1.320163         0.157334
 H        -2.252328        -0.463414         0.939105
 H        -1.683102        -0.797669        -0.756586
 H        -0.573587         3.349191         0.446563
 H        -2.111508         2.586007         1.343832
