19
Iteration:   549
 O         0.396245         0.508604         0.733936
 C        -0.756343         1.011173         0.124178
 C        -0.577714         1.713141        -1.326702
 C        -1.975762         2.208598        -0.796189
 C        -2.945808         2.711857        -1.889391
 O        -3.452944         1.330355        -2.050213
 C        -2.886208         1.087703        -0.723557
 C        -1.981331        -0.055991        -0.168324
 C        -1.499807         2.330449         0.633500
 H         0.622631         1.137940         1.509559
 H         0.147714         2.526777        -1.182305
 H        -0.519308         1.192987        -2.281405
 H        -3.724303         3.494991        -1.518924
 H        -2.466204         3.125842        -2.851897
 H        -3.612569         1.222965         0.105394
 H        -2.418591        -0.460765         0.806930
 H        -1.535177        -0.667153        -0.973939
 H        -0.658705         3.186769         0.856530
 H        -2.068952         2.319871         1.561649
