19
Iteration:  1152charge 0 multiplicity 1
 O         0.436719         0.542165         0.649720
 C        -0.817513         1.015102         0.182474
 C        -0.678755         1.618405        -1.249489
 C        -1.900474         2.378761        -0.865953
 C        -2.910227         2.709463        -2.046545
 O        -3.402367         1.297719        -1.982378
 C        -2.937101         1.060295        -0.689367
 C        -2.007721         0.040511        -0.041161
 C        -1.397527         2.360075         0.572713
 H         0.270638         0.104898         1.511905
 H         0.182561         2.292809        -1.236869
 H        -0.835750         0.891315        -2.036546
 H        -3.748139         3.287853        -1.673321
 H        -2.513285         2.934034        -3.064895
 H        -3.810148         1.487500         0.018537
 H        -2.494407        -0.471794         0.961587
 H        -1.690066        -0.810374        -0.652874
 H        -0.574310         2.949988         1.015303
 H        -2.151921         2.305863         1.339632
