19
Iteration:   329charge 0 multiplicity 1
 O         0.499825         0.634010         0.665481
 C        -0.838183         0.952537         0.152884
 C        -0.656329         1.624526        -1.263421
 C        -2.071870         2.334316        -0.777579
 C        -2.973323         2.745183        -1.945120
 O        -3.301734         1.336053        -2.112160
 C        -2.915898         1.102447        -0.663478
 C        -1.970866        -0.046264        -0.225254
 C        -1.493114         2.287339         0.755967
 H         0.348799         0.656058         1.646074
 H         0.158102         2.335710        -1.319481
 H        -0.635904         0.938535        -2.122839
 H        -3.874955         3.316473        -1.752638
 H        -2.235433         3.101368        -2.724305
 H        -3.744728         1.218634         0.044833
 H        -2.197692        -0.727916         0.636424
 H        -1.721577        -0.594751        -1.183873
 H        -0.596208         2.823871         1.199075
 H        -2.243821         2.012750         1.527526
