19
Iteration:   550
 O         0.397464         0.517190         0.731384
 C        -0.756864         1.007505         0.127309
 C        -0.576658         1.712401        -1.316825
 C        -1.979671         2.215406        -0.805455
 C        -2.947366         2.718259        -1.888349
 O        -3.454557         1.326055        -2.051648
 C        -2.885651         1.093793        -0.717646
 C        -1.985537        -0.064167        -0.169030
 C        -1.495198         2.326516         0.633614
 H         0.619097         1.118432         1.494367
 H         0.169483         2.506583        -1.178140
 H        -0.507665         1.193927        -2.289936
 H        -3.682503         3.458204        -1.525092
 H        -2.470333         3.138811        -2.846850
 H        -3.595751         1.233491         0.097026
 H        -2.425089        -0.482720         0.782356
 H        -1.541123        -0.687814        -0.963252
 H        -0.680558         3.182240         0.836405
 H        -2.065426         2.317868         1.567540
