19
Iteration:  2756charge 0 multiplicity 1
 O         0.346656         0.400047         0.777911
 C        -0.658420         0.963492         0.134252
 C        -0.635284         1.511783        -1.371966
 C        -1.895485         2.332719        -0.890456
 C        -3.054818         2.727012        -1.874298
 O        -3.352604         1.284874        -2.014065
 C        -2.932879         1.128589        -0.604918
 C        -2.034891         0.004295        -0.024180
 C        -1.331233         2.590044         0.377082
 H         0.227273         0.551319         1.781602
 H         0.089498         2.374759        -1.374160
 H        -0.873842         0.925838        -2.310717
 H        -3.892276         3.258410        -1.281069
 H        -2.906498         3.280557        -2.798717
 H        -3.763851         1.214340        -0.007165
 H        -2.505864        -0.325271         1.010560
 H        -1.885033        -0.774423        -0.780882
 H        -0.470962         3.088517         0.613861
 H        -2.010353         2.940274         1.193330
