19
Iteration:   729charge 0 multiplicity 1
 O         0.310822         0.433032         0.809963
 C        -0.750258         0.969978         0.104007
 C        -0.636367         1.681608        -1.320857
 C        -1.914655         2.331400        -0.890117
 C        -3.023621         2.683230        -1.845486
 O        -3.375671         1.246049        -2.008789
 C        -2.868810         1.115574        -0.673353
 C        -1.955500         0.016182        -0.167783
 C        -1.391834         2.459055         0.508635
 H         0.358416         0.808069         1.659425
 H         0.228058         2.443972        -1.363259
 H        -0.754858         1.121970        -2.282379
 H        -3.855244         3.227534        -1.215607
 H        -2.935445         3.067333        -2.909706
 H        -3.612784         1.474016         0.065733
 H        -2.313301        -0.471300         0.721771
 H        -1.689571        -0.668230        -0.927774
 H        -0.517847         3.141359         0.538856
 H        -1.987799         2.493118         1.530166
