19
Iteration:  2935charge 0 multiplicity 1
 O         0.477944         0.505811         0.691235
 C        -0.750864         1.002631         0.146344
 C        -0.623848         1.566403        -1.261798
 C        -1.961914         2.300995        -0.915801
 C        -2.893354         2.692094        -2.026843
 O        -3.489052         1.290369        -1.998890
 C        -2.958767         1.186772        -0.585655
 C        -2.019614         0.054010        -0.072525
 C        -1.417913         2.413968         0.577262
 H         0.318887         0.036446         1.551449
 H         0.064876         2.389359        -1.316853
 H        -0.608593         0.857101        -2.066914
 H        -3.722243         3.444264        -1.817994
 H        -2.311538         2.854582        -2.988835
 H        -3.795592         1.304873         0.197747
 H        -2.423329        -0.391165         0.976271
 H        -1.764578        -0.760478        -0.893773
 H        -0.590938         3.216110         0.751051
 H        -2.084776         2.306469         1.413535
