19
Iteration:  1215
 O         0.337517         0.511002         0.820547
 C        -0.744569         0.965039         0.091528
 C        -0.591046         1.593656        -1.304762
 C        -1.923026         2.323198        -0.877237
 C        -3.047115         2.779677        -1.929184
 O        -3.435616         1.262709        -2.014053
 C        -2.896585         1.083709        -0.746169
 C        -1.915346         0.058399        -0.087972
 C        -1.383227         2.457205         0.589725
 H         0.089439        -0.107853         1.485651
 H         0.317051         2.216930        -1.468953
 H        -0.733925         0.931525        -2.223293
 H        -3.951152         3.300515        -1.576275
 H        -2.790864         3.154970        -2.941016
 H        -3.604067         1.292752         0.060288
 H        -2.282720        -0.439031         0.792707
 H        -1.626159        -0.814073        -0.691041
 H        -0.361956         3.020902         0.646541
 H        -2.086443         2.533163         1.399323
