19
Iteration:   273charge 0 multiplicity 1
 O         0.396772         0.404970         0.729022
 C        -0.755515         1.083329         0.193028
 C        -0.666179         1.676900        -1.185462
 C        -2.118404         2.268661        -0.788812
 C        -3.078105         2.739702        -1.886525
 O        -3.276020         1.324477        -2.125698
 C        -2.867010         1.035604        -0.784474
 C        -1.799799         0.068946        -0.191950
 C        -1.460875         2.450601         0.627173
 H         0.007142        -0.434821         1.196992
 H         0.020275         2.452028        -1.224369
 H        -0.768720         1.171721        -2.132229
 H        -3.946772         3.187384        -1.370596
 H        -2.896858         3.360557        -2.754804
 H        -3.741154         0.966697        -0.109303
 H        -2.126938        -0.521537         0.688401
 H        -1.397089        -0.766712        -0.859080
 H        -0.775052         3.262172         0.666376
 H        -1.960385         2.365882         1.663677
