19
Iteration:  4113charge 0 multiplicity 1
 O         0.455826         0.504842         0.721862
 C        -0.686631         0.935010         0.110651
 C        -0.633473         1.620520        -1.266889
 C        -1.941273         2.306954        -0.811800
 C        -2.914543         2.677705        -2.094597
 O        -3.523959         1.287402        -2.014103
 C        -2.958772         1.148843        -0.660801
 C        -1.975430         0.069173        -0.085023
 C        -1.508153         2.373477         0.630995
 H         0.816497         1.141523         1.423613
 H         0.200559         2.329079        -1.174068
 H        -0.595126         0.819004        -2.000902
 H        -3.736481         3.526865        -1.906969
 H        -2.275426         2.645409        -3.000698
 H        -3.738288         1.488671         0.169708
 H        -2.157825        -0.304483         0.936727
 H        -1.703591        -0.802437        -0.803896
 H        -0.764892         3.132298         0.841490
 H        -2.153384         2.359250         1.534171
