19
Iteration:  4057charge 0 multiplicity 1
 O         0.302573         0.569338         0.910451
 C        -0.702182         1.039655         0.071091
 C        -0.664812         1.536350        -1.407374
 C        -1.940481         2.342288        -0.874986
 C        -3.113074         2.684946        -1.904374
 O        -3.360934         1.232644        -2.042032
 C        -2.820635         1.107452        -0.632571
 C        -1.979468         0.077290        -0.087166
 C        -1.294128         2.457093         0.522584
 H        -0.012167        -0.230126         1.280714
 H         0.249686         2.139928        -1.614357
 H        -0.640275         0.800733        -2.173362
 H        -3.953251         3.273356        -1.293751
 H        -2.964708         3.238334        -2.890105
 H        -3.748088         1.387588         0.053356
 H        -2.307801        -0.710651         0.606480
 H        -1.675074        -0.533938        -0.968058
 H        -0.399426         2.982929         0.737801
 H        -2.045240         2.481266         1.342860
