19
Iteration:  2858charge 0 multiplicity 1
 O         0.392556         0.347150         0.827990
 C        -0.724770         1.022842         0.127550
 C        -0.680041         1.642004        -1.334160
 C        -1.950794         2.320288        -0.901350
 C        -3.055915         2.717924        -1.962220
 O        -3.430976         1.219311        -1.990304
 C        -2.888193         1.176555        -0.674315
 C        -1.998296         0.110457        -0.084649
 C        -1.256000         2.501895         0.528953
 H         0.201239         0.283655         1.738563
 H         0.146163         2.251250        -1.586969
 H        -0.625511         0.838123        -2.006168
 H        -3.988092         3.187892        -1.627235
 H        -2.808072         2.989509        -3.004646
 H        -3.534786         1.449476         0.092800
 H        -2.416577        -0.488334         0.855933
 H        -1.791472        -0.783081        -0.819629
 H        -0.443847         3.316913         0.570686
 H        -2.084447         2.580569         1.205893
