19
Iteration:  2271
 O         0.347484         0.355723         0.692119
 C        -0.791681         0.996637         0.206140
 C        -0.687799         1.575768        -1.334464
 C        -1.977091         2.384967        -0.894319
 C        -3.122686         2.696828        -1.920678
 O        -3.328516         1.204101        -2.028547
 C        -2.821985         1.174203        -0.620073
 C        -2.010964         0.084938         0.004416
 C        -1.217404         2.571702         0.497550
 H         0.036712         0.034674         1.589759
 H         0.167650         2.170425        -1.580919
 H        -0.723824         0.822536        -2.052111
 H        -4.121826         3.149248        -1.796806
 H        -2.951496         3.082149        -2.859109
 H        -3.666032         1.504278         0.137832
 H        -2.529128        -0.281628         0.862124
 H        -1.656249        -0.768148        -0.669024
 H        -0.162882         3.020697         0.372718
 H        -1.748401         3.079559         1.333405
