19
Iteration:  2477charge 0 multiplicity 1
 O         0.490293         0.408548         0.727892
 C        -0.693944         0.949292         0.176678
 C        -0.725356         1.539808        -1.373442
 C        -1.955770         2.248732        -0.923342
 C        -3.007521         2.739126        -2.023793
 O        -3.433183         1.267098        -1.959050
 C        -2.912680         1.225527        -0.626791
 C        -2.059619         0.099288         0.011292
 C        -1.330022         2.451762         0.542205
 H         0.369661         0.514850         1.725421
 H         0.024325         2.425673        -1.585249
 H        -0.868937         0.865042        -2.268362
 H        -3.678224         3.505021        -1.766824
 H        -2.543465         3.011560        -3.016279
 H        -3.738380         1.476545         0.166296
 H        -2.532345        -0.088099         0.929003
 H        -1.876208        -0.837683        -0.604673
 H        -0.507992         3.189304         0.604004
 H        -1.950362         2.671760         1.339667
