19
Iteration:  3840
 O         0.428981         0.476356         0.770124
 C        -0.770648         1.029553         0.198440
 C        -0.673181         1.576734        -1.310926
 C        -1.959645         2.257602        -0.878020
 C        -2.928884         2.577331        -1.994588
 O        -3.429559         1.260844        -2.051637
 C        -2.946730         1.118466        -0.634038
 C        -2.010875         0.144695         0.016869
 C        -1.341283         2.570413         0.495021
 H         0.405824        -0.531358         0.881426
 H         0.166134         2.401431        -1.279117
 H        -0.711257         0.857715        -2.153830
 H        -3.698657         3.370479        -1.606569
 H        -2.517606         3.099330        -2.848139
 H        -3.849353         1.367217         0.101433
 H        -2.512257        -0.327222         0.874257
 H        -1.712150        -0.708646        -0.705893
 H        -0.584691         3.303724         0.370173
 H        -2.011702         2.670914         1.378356
