19
Iteration:  1192charge 0 multiplicity 1
 O         0.320683         0.321504         0.782820
 C        -0.702038         1.092414         0.142039
 C        -0.647169         1.721113        -1.252243
 C        -2.005609         2.356307        -0.915773
 C        -2.962967         2.623466        -1.954934
 O        -3.423644         1.259342        -2.006722
 C        -2.948987         1.110132        -0.600889
 C        -1.911309         0.067156        -0.144699
 C        -1.331703         2.531496         0.528133
 H        -0.074967        -0.278671         1.460544
 H         0.111806         2.508768        -1.448363
 H        -0.504905         0.918620        -2.056000
 H        -3.837309         3.230901        -1.660493
 H        -2.569865         3.038067        -2.896736
 H        -3.688053         1.157996         0.173084
 H        -2.218044        -0.560137         0.621815
 H        -1.465581        -0.665592        -0.847130
 H        -0.549192         3.407438         0.504884
 H        -2.051810         2.519652         1.331859
