19
Iteration:  2666charge 0 multiplicity 1
 O         0.386561         0.565991         0.673851
 C        -0.750404         1.061842         0.162258
 C        -0.672716         1.443589        -1.273128
 C        -1.913988         2.291190        -0.905398
 C        -2.935415         2.704668        -1.986944
 O        -3.501286         1.304253        -2.033334
 C        -2.974128         1.188506        -0.642504
 C        -1.972025        -0.005824        -0.006029
 C        -1.269089         2.429905         0.595281
 H         0.272051        -0.026311         1.412728
 H         0.259290         2.111797        -1.401633
 H        -0.795625         0.617980        -2.084956
 H        -3.845272         3.347015        -1.772478
 H        -2.664045         3.094391        -2.983368
 H        -3.716247         1.570057         0.098145
 H        -2.346398        -0.391231         1.011760
 H        -1.636608        -0.769847        -0.691134
 H        -0.498336         3.147825         0.634910
 H        -1.952375         2.607567         1.420716
