19
Iteration:  2093charge 0 multiplicity 1
 O         0.563983         0.547712         0.668699
 C        -0.711836         0.941240         0.157791
 C        -0.794810         1.542799        -1.337239
 C        -2.017756         2.288324        -0.843099
 C        -2.860828         2.677683        -2.103691
 O        -3.456200         1.358101        -1.980244
 C        -2.931846         1.152124        -0.569757
 C        -2.042016         0.055613         0.007348
 C        -1.404752         2.391338         0.527727
 H         0.469500         0.432533         1.623190
 H         0.199563         1.903784        -1.418177
 H        -1.027267         0.759527        -2.080221
 H        -3.601535         3.483700        -1.833500
 H        -2.112884         2.796003        -2.913788
 H        -3.726846         1.523772         0.159177
 H        -2.422691        -0.231156         1.043978
 H        -2.159956        -0.877075        -0.511935
 H        -0.542623         3.051109         0.674845
 H        -2.240984         2.674080         1.384889
