19
Iteration:  4614charge 0 multiplicity 1
 O         0.296592         0.391186         0.816543
 C        -0.799466         1.023736         0.209511
 C        -0.604990         1.688475        -1.281746
 C        -1.976243         2.345916        -0.912830
 C        -3.065618         2.693498        -1.945547
 O        -3.355956         1.210495        -2.049079
 C        -2.852222         1.119455        -0.665896
 C        -1.925968         0.059398        -0.142809
 C        -1.386535         2.414216         0.590683
 H         1.101431         0.924910         0.840511
 H         0.074972         2.467209        -1.274417
 H        -0.489370         1.070394        -2.190644
 H        -3.959942         3.267979        -1.664080
 H        -2.623153         3.181793        -2.831861
 H        -3.746098         1.378558        -0.015291
 H        -2.415349        -0.525151         0.632854
 H        -1.367462        -0.583414        -0.940892
 H        -0.714138         3.144235         0.856837
 H        -2.194234         2.495279         1.314896
