19
Iteration:   790
 O         0.450092         0.563852         0.706805
 C        -0.730493         0.995647         0.126995
 C        -0.634735         1.579965        -1.282147
 C        -1.998789         2.259055        -0.781283
 C        -2.922827         2.781960        -1.997986
 O        -3.476192         1.351613        -2.050339
 C        -2.952864         0.993928        -0.679553
 C        -1.955242        -0.012441        -0.044644
 C        -1.440110         2.517976         0.616922
 H         0.499573        -0.391131         0.829810
 H         0.159211         2.306474        -1.301191
 H        -0.681125         0.904583        -2.156159
 H        -3.648385         3.522247        -1.989344
 H        -2.331531         2.908273        -2.889662
 H        -3.906541         1.056978        -0.008670
 H        -2.356988        -0.379421         0.938600
 H        -1.640591        -1.030413        -0.496898
 H        -0.568484         3.256294         0.827761
 H        -2.100298         2.411171         1.461291
