19
Iteration:  3394
 O         0.376062         0.614923         0.847364
 C        -0.767395         0.913602         0.057204
 C        -0.605395         1.588868        -1.287046
 C        -1.900065         2.225604        -0.827562
 C        -2.886951         2.746111        -1.961108
 O        -3.532915         1.297821        -2.078557
 C        -2.951002         1.126745        -0.619527
 C        -1.993009        -0.000333        -0.107783
 C        -1.403579         2.350796         0.536099
 H         0.872473         1.471306         0.865695
 H         0.324201         2.237688        -1.266357
 H        -0.545764         0.809177        -2.038845
 H        -3.693089         3.405626        -1.350286
 H        -2.257897         2.996775        -2.831603
 H        -3.758379         1.431455         0.034269
 H        -2.399863        -0.504839         0.815165
 H        -1.886771        -0.670095        -0.950629
 H        -0.554395         3.034812         0.731211
 H        -2.121416         2.358863         1.425927
