19
Iteration:   844charge 0 multiplicity 1
 O         0.306569         0.474311         0.901972
 C        -0.730958         1.014949         0.126257
 C        -0.671164         1.644745        -1.322522
 C        -1.983713         2.300947        -0.824593
 C        -3.072340         2.677663        -1.905463
 O        -3.365273         1.282499        -2.068053
 C        -2.916243         1.117173        -0.655698
 C        -1.959791         0.071940        -0.147962
 C        -1.279218         2.416968         0.492440
 H         0.970332         0.075288         0.378051
 H         0.143614         2.377067        -1.351740
 H        -0.710126         0.855548        -2.152118
 H        -3.941558         3.151445        -1.343471
 H        -2.923469         3.221441        -2.843912
 H        -3.640229         1.422240         0.074715
 H        -2.265029        -0.328084         0.852040
 H        -1.740293        -0.883128        -0.728451
 H        -0.307617         3.106579         0.444938
 H        -1.900991         2.556277         1.402427
