19
Iteration:  3724
 O         0.343379         0.496293         0.922624
 C        -0.739160         0.963373         0.108130
 C        -0.568091         1.562938        -1.316026
 C        -1.901102         2.309477        -0.916187
 C        -3.022878         2.634167        -2.055636
 O        -3.472548         1.307521        -1.977127
 C        -2.936007         1.219940        -0.580753
 C        -2.021330         0.101374        -0.074870
 C        -1.339218         2.417405         0.464278
 H         1.217363         0.587236         0.509098
 H         0.275116         2.212865        -1.460550
 H        -0.687025         0.695599        -2.026475
 H        -3.872510         3.291632        -1.927456
 H        -2.572206         2.689015        -3.041205
 H        -3.766241         1.543365         0.070575
 H        -2.222353        -0.274658         1.076573
 H        -1.943442        -0.808714        -0.717296
 H        -0.632886         3.207486         0.731915
 H        -2.013204         2.090282         1.337214
