19
Iteration:  1454charge 0 multiplicity 1
 O         0.348606         0.464329         0.692571
 C        -0.804537         1.034919         0.128808
 C        -0.694061         1.678705        -1.257859
 C        -2.004581         2.325542        -0.831495
 C        -2.984493         2.688040        -2.012780
 O        -3.335729         1.259392        -2.048533
 C        -2.891960         1.123082        -0.667279
 C        -1.918640         0.067001        -0.074526
 C        -1.346808         2.432138         0.678528
 H         0.041682        -0.292441         1.165521
 H         0.157554         2.381601        -1.222904
 H        -0.793685         1.023835        -2.129363
 H        -3.924239         3.213414        -1.806734
 H        -2.517418         2.910225        -2.984299
 H        -3.776020         1.321393        -0.064384
 H        -2.379574        -0.483212         0.891264
 H        -1.391618        -0.740478        -0.751638
 H        -0.543918         3.224071         0.731446
 H        -1.947214         2.269786         1.523227
