19
Iteration:  3510
 O         0.499510         0.562803         0.730625
 C        -0.745817         0.968035         0.144242
 C        -0.764191         1.561205        -1.272456
 C        -2.107870         2.230160        -0.792601
 C        -2.775339         2.723187        -1.997530
 O        -3.451393         1.272317        -2.070163
 C        -2.998257         1.142643        -0.644281
 C        -1.983726         0.055001         0.004827
 C        -1.379227         2.515407         0.502932
 H         0.348791        -0.307773         1.059175
 H         0.067544         2.254623        -1.329417
 H        -0.781196         0.749442        -2.077084
 H        -3.528466         3.418074        -1.788418
 H        -2.057538         2.916861        -2.802677
 H        -3.958110         1.113270        -0.026767
 H        -2.400514        -0.185846         0.919617
 H        -1.703317        -0.870929        -0.641987
 H        -0.400554         3.180490         0.547378
 H        -1.917479         2.624275         1.449228
