19
Iteration:  1597charge 0 multiplicity 1
 O         0.496400         0.435254         0.735142
 C        -0.742192         0.931177         0.120570
 C        -0.701350         1.577571        -1.332468
 C        -2.010666         2.301788        -0.815339
 C        -2.872864         2.788237        -2.035575
 O        -3.451321         1.304043        -2.071374
 C        -2.925095         1.093041        -0.654623
 C        -2.016027         0.079786         0.041616
 C        -1.414283         2.444771         0.567974
 H         0.497641         0.806530         1.570028
 H         0.059880         2.329420        -1.321306
 H        -0.907657         0.962133        -2.149550
 H        -3.633124         3.518287        -1.727319
 H        -2.303175         2.968961        -2.982002
 H        -3.822217         1.290316         0.162164
 H        -2.427893        -0.453645         1.048485
 H        -1.842438        -0.916133        -0.563310
 H        -0.625773         3.404380         0.520841
 H        -2.135234         2.256217         1.329822
