19
Iteration:  1264
 O         0.475428         0.592534         0.692333
 C        -0.791057         1.052681         0.196020
 C        -0.725976         1.499676        -1.219268
 C        -2.017968         2.278428        -0.779856
 C        -2.890751         2.771867        -1.945163
 O        -3.440307         1.364354        -2.106813
 C        -2.948263         1.044526        -0.710338
 C        -1.917142        -0.034641        -0.136947
 C        -1.382805         2.419526         0.569260
 H         0.343641         0.398257         1.702679
 H         0.130739         2.170703        -1.311164
 H        -0.737537         0.817126        -2.037845
 H        -3.694170         3.507668        -1.694038
 H        -2.344033         3.043647        -2.859144
 H        -3.727032         1.101461         0.005123
 H        -2.494631        -0.470709         0.920993
 H        -1.812284        -1.050066        -0.582954
 H        -0.580423         3.055260         0.654659
 H        -2.167656         2.335454         1.359851
