19
Iteration:  1047
 O         0.389669         0.447158         0.720121
 C        -0.718214         0.998442         0.115417
 C        -0.582302         1.688556        -1.206781
 C        -1.935140         2.344326        -0.892535
 C        -2.968851         2.650738        -2.004328
 O        -3.540772         1.246668        -1.968014
 C        -2.920968         1.142585        -0.631862
 C        -1.951677         0.057845        -0.093245
 C        -1.373342         2.463107         0.529409
 H         0.091332        -0.200177         1.319180
 H         0.257801         2.462976        -1.172750
 H        -0.460194         0.992506        -2.061615
 H        -3.682207         3.500944        -1.823512
 H        -2.466262         2.723224        -2.987104
 H        -3.538379         1.300919         0.137354
 H        -2.428112        -0.392458         0.891891
 H        -1.735492        -0.814414        -0.877815
 H        -0.693103         3.291927         0.551193
 H        -2.135623         2.482908         1.415387
