19
Iteration:  4167
 O         0.287571         0.333194         0.872133
 C        -0.662710         1.089995         0.197717
 C        -0.670850         1.628184        -1.295688
 C        -2.026444         2.296861        -0.843670
 C        -3.082554         2.685359        -1.877869
 O        -3.303601         1.288084        -2.143172
 C        -2.925600         1.027626        -0.695841
 C        -1.963765         0.055714        -0.066176
 C        -1.323185         2.569490         0.468557
 H         1.178437         0.538171         0.425147
 H         0.100122         2.401931        -1.437955
 H        -0.552448         0.887185        -2.098291
 H        -4.035942         3.269318        -1.465632
 H        -2.907737         3.365749        -2.742999
 H        -3.848135         1.055195        -0.036451
 H        -2.370624        -0.256544         0.888268
 H        -1.554762        -0.828115        -0.549946
 H        -0.577861         3.378626         0.487073
 H        -1.927176         2.597492         1.444886
