19
Iteration:  1237
 O         0.473528         0.671551         0.807205
 C        -0.724385         0.986755         0.145148
 C        -0.647231         1.525132        -1.303360
 C        -1.930743         2.169888        -0.872747
 C        -2.981297         2.709328        -1.869156
 O        -3.418957         1.390613        -2.115460
 C        -2.912671         1.092108        -0.661939
 C        -2.070350         0.011230        -0.079744
 C        -1.404168         2.340531         0.523239
 H         0.258080         0.026537         1.572851
 H         0.096736         2.363769        -1.321549
 H        -0.497636         0.983057        -2.285364
 H        -3.718947         3.375003        -1.382771
 H        -2.701786         3.216930        -2.822428
 H        -3.694048         1.572695        -0.004015
 H        -2.465711        -0.553347         0.728350
 H        -2.017480        -0.785967        -0.807204
 H        -0.533831         3.131009         0.608907
 H        -2.154630         2.256578         1.284677
