19
Iteration:  4250
 O         0.327875         0.344783         0.765937
 C        -0.687905         1.046455         0.178626
 C        -0.607097         1.681024        -1.263339
 C        -1.981468         2.276937        -0.815966
 C        -2.927929         2.646401        -2.104332
 O        -3.495247         1.315153        -1.937825
 C        -2.923758         1.060560        -0.689816
 C        -1.926843         0.055560        -0.138733
 C        -1.463793         2.532458         0.614344
 H         0.957057         1.028058         0.856629
 H         0.153940         2.571674        -1.253066
 H        -0.519944         0.937004        -2.088041
 H        -3.774609         3.304219        -2.042732
 H        -2.251507         2.735455        -3.026058
 H        -3.851044         1.256013        -0.017752
 H        -2.193491        -0.626259         0.747172
 H        -1.502159        -0.659562        -0.884433
 H        -0.722850         3.332372         0.703100
 H        -2.013528         2.557907         1.611471
