19
Iteration:  2182
 O         0.388154         0.550213         0.719202
 C        -0.728826         1.019682         0.099893
 C        -0.611206         1.528269        -1.249639
 C        -1.916858         2.219969        -0.860438
 C        -2.857133         2.668328        -2.023878
 O        -3.574173         1.281567        -1.886461
 C        -3.015604         1.147142        -0.579201
 C        -1.994376         0.124822        -0.144684
 C        -1.290766         2.431466         0.485061
 H         0.141292         0.149854         1.579393
 H         0.269705         2.135052        -1.260898
 H        -0.474000         0.859585        -2.066801
 H        -3.667461         3.447995        -1.770441
 H        -2.524234         2.853102        -3.038684
 H        -3.719878         1.596034         0.271210
 H        -2.399178        -0.484768         0.661634
 H        -1.777131        -0.648785        -0.942417
 H        -0.427168         3.166735         0.429970
 H        -2.083643         2.537528         1.309374
