19
Iteration:  1459
 O         0.370989         0.518179         0.699138
 C        -0.793781         1.011198         0.138238
 C        -0.704312         1.666874        -1.270127
 C        -2.015650         2.288306        -0.814149
 C        -2.954650         2.682463        -1.996759
 O        -3.331801         1.266045        -2.068255
 C        -2.912319         1.130258        -0.660381
 C        -1.918320         0.102453        -0.085426
 C        -1.358235         2.382460         0.647604
 H         0.071697        -0.375584         1.129177
 H         0.258181         2.227223        -1.207015
 H        -0.906652         0.922744        -2.073709
 H        -3.840620         3.295073        -1.714834
 H        -2.597941         2.900013        -3.020225
 H        -3.791437         1.364585        -0.000300
 H        -2.307130        -0.348932         0.732508
 H        -1.598877        -0.621717        -0.748215
 H        -0.642690         3.149996         0.842048
 H        -1.991392         2.372209         1.673897
