19
Iteration:  3253charge 0 multiplicity 1
 O         0.287454         0.439572         0.948629
 C        -0.718385         1.001765         0.124647
 C        -0.654150         1.623063        -1.334645
 C        -1.933960         2.332422        -0.881698
 C        -3.016323         2.694899        -1.969389
 O        -3.531573         1.382664        -1.996342
 C        -2.852160         1.077970        -0.713496
 C        -1.908663        -0.074909        -0.134549
 C        -1.364964         2.439855         0.504947
 H         1.090339         1.012864         0.891845
 H         0.323742         2.242958        -1.418379
 H        -0.648182         0.967855        -2.246648
 H        -3.737865         3.352681        -1.636782
 H        -2.511263         2.959051        -2.923476
 H        -3.635633         1.293242         0.073327
 H        -2.361881        -0.452380         0.813395
 H        -1.474916        -0.848406        -0.696641
 H        -0.450357         3.131211         0.490982
 H        -1.930260         2.636381         1.491659
