19
Iteration:  4176
 O         0.328241         0.353367         0.900082
 C        -0.696212         1.144646         0.144693
 C        -0.694540         1.603463        -1.311995
 C        -1.991619         2.233118        -0.855260
 C        -3.096245         2.743926        -1.820740
 O        -3.328727         1.293789        -2.186065
 C        -2.937491         1.057271        -0.759437
 C        -1.933856         0.044448         0.035841
 C        -1.325814         2.513516         0.497356
 H         1.248456         0.432557         0.454908
 H         0.152013         2.334434        -1.406654
 H        -0.609766         0.960333        -2.159907
 H        -3.854136         3.120522        -1.110305
 H        -2.851706         3.097569        -2.858137
 H        -3.794076         1.461979        -0.293372
 H        -2.419739        -0.464616         0.848154
 H        -1.518651        -0.687233        -0.551399
 H        -0.610865         3.358039         0.427312
 H        -2.238051         2.537670         1.283216
