19
Iteration:  1193charge 0 multiplicity 1
 O         0.316774         0.324337         0.782235
 C        -0.703870         1.098728         0.146627
 C        -0.650334         1.716569        -1.259984
 C        -2.005195         2.350653        -0.916609
 C        -2.973726         2.619139        -1.952880
 O        -3.424841         1.266952        -2.013400
 C        -2.931030         1.118791        -0.596165
 C        -1.906979         0.065219        -0.149688
 C        -1.330354         2.528261         0.529941
 H        -0.094254        -0.299558         1.481917
 H         0.109851         2.517099        -1.427643
 H        -0.530868         0.900448        -2.047842
 H        -3.833353         3.226937        -1.628636
 H        -2.549529         3.021123        -2.897223
 H        -3.650396         1.146638         0.133067
 H        -2.244316        -0.615125         0.682611
 H        -1.464887        -0.680317        -0.833857
 H        -0.569323         3.425864         0.507602
 H        -2.038616         2.524451         1.333442
