19
Iteration:  1311
 O         0.366293         0.400782         0.686750
 C        -0.753606         0.963651         0.084367
 C        -0.586415         1.755225        -1.242913
 C        -1.973643         2.314923        -0.846915
 C        -3.071913         2.597745        -1.982191
 O        -3.296288         1.217174        -1.994538
 C        -2.878376         1.199894        -0.669941
 C        -2.018362         0.140697        -0.095433
 C        -1.388095         2.424095         0.613007
 H        -0.047210         0.105039         1.549560
 H         0.077693         2.611247        -1.180518
 H        -0.371435         1.139006        -2.146740
 H        -3.900205         3.162170        -1.487881
 H        -2.675694         3.066559        -2.881533
 H        -3.791295         1.386168        -0.008378
 H        -2.430480        -0.414399         0.795757
 H        -1.790280        -0.745216        -0.810388
 H        -0.650984         3.287039         0.609913
 H        -2.099515         2.351723         1.379952
