19
Iteration:  2172charge 0 multiplicity 1
 O         0.328864         0.476817         0.772046
 C        -0.767521         1.028267         0.114571
 C        -0.607870         1.537709        -1.351652
 C        -1.950378         2.323862        -0.931087
 C        -2.953664         2.610100        -1.993446
 O        -3.538410         1.266080        -1.902267
 C        -2.907241         1.210892        -0.598524
 C        -1.946812         0.111892        -0.090523
 C        -1.251469         2.416355         0.495508
 H         0.026718         0.103958         1.590624
 H         0.052141         2.364750        -1.445180
 H        -0.653831         0.912735        -2.200176
 H        -3.655036         3.482014        -1.662063
 H        -2.512105         2.882429        -2.929621
 H        -3.772079         1.411017         0.136603
 H        -2.166032        -0.346988         0.845415
 H        -1.634149        -0.604152        -0.901834
 H        -0.305600         3.046492         0.791534
 H        -2.023552         2.586501         1.339425
