19
Iteration:  3246
 O         0.271577         0.405753         0.956127
 C        -0.733259         1.004182         0.136609
 C        -0.633631         1.646362        -1.355063
 C        -1.966524         2.358367        -0.922195
 C        -3.024918         2.729806        -1.945737
 O        -3.499391         1.300491        -1.967216
 C        -2.826915         1.086234        -0.715125
 C        -1.916020        -0.021533        -0.155258
 C        -1.321978         2.453478         0.517940
 H         1.124511         0.773784         1.053424
 H         0.250062         2.242297        -1.422508
 H        -0.770175         0.950673        -2.155222
 H        -3.887127         3.521032        -1.734630
 H        -2.718594         2.887348        -3.044644
 H        -3.473446         1.376559         0.070733
 H        -2.393896        -0.606702         0.722552
 H        -1.526677        -0.815003        -0.839152
 H        -0.537831         3.144743         0.610750
 H        -1.964098         2.733503         1.409472
