19
Iteration:  3308
 O         0.417734         0.496607         0.734127
 C        -0.759477         0.913032         0.117459
 C        -0.780913         1.555165        -1.268685
 C        -1.941677         2.366848        -0.823715
 C        -2.991485         2.723472        -1.982871
 O        -3.327950         1.285569        -2.104082
 C        -2.927563         1.091762        -0.679726
 C        -1.986379         0.042587        -0.041020
 C        -1.378852         2.447183         0.653591
 H         0.861556         1.300225         0.914994
 H         0.234373         2.129350        -1.232708
 H        -0.796355         0.853334        -2.131660
 H        -3.734870         3.370313        -1.646183
 H        -2.687770         3.080401        -2.985973
 H        -3.855742         1.302431         0.007791
 H        -2.422392        -0.314713         0.930725
 H        -1.814917        -0.769663        -0.649400
 H        -0.403589         2.927796         0.805081
 H        -2.230504         2.515826         1.422903
