19
Iteration:  3625charge 0 multiplicity 1
 O         0.423970         0.502057         0.805369
 C        -0.755615         0.946039         0.119122
 C        -0.681299         1.539486        -1.298240
 C        -1.964143         2.237737        -0.953230
 C        -2.856725         2.710764        -2.093819
 O        -3.491003         1.306919        -1.947018
 C        -2.989473         1.172447        -0.590806
 C        -2.009606         0.035886         0.038224
 C        -1.356157         2.431164         0.465348
 H         0.954566         1.230235         1.077201
 H         0.127739         2.266116        -1.300728
 H        -0.786759         0.857672        -2.111021
 H        -3.421790         3.534854        -1.822183
 H        -2.333185         2.787701        -3.020931
 H        -3.785841         1.557823         0.188652
 H        -2.448501        -0.443972         1.014879
 H        -1.784305        -0.716393        -0.715100
 H        -0.573111         3.142638         0.682763
 H        -2.136873         2.545932         1.255064
