19
Iteration:  2593charge 0 multiplicity 1
 O         0.461910         0.486659         0.681193
 C        -0.731100         0.977829         0.158964
 C        -0.680181         1.566597        -1.252546
 C        -1.970287         2.334648        -0.902798
 C        -2.952166         2.687077        -2.065038
 O        -3.447048         1.260712        -1.962975
 C        -2.907325         1.208777        -0.585713
 C        -2.078600        -0.028816        -0.017929
 C        -1.320101         2.530498         0.522498
 H         0.396834        -0.171078         1.361690
 H         0.134450         2.156210        -1.506861
 H        -0.932188         0.813693        -1.969539
 H        -3.709324         3.437758        -1.852901
 H        -2.582551         2.970032        -3.027767
 H        -3.800503         1.412237         0.010390
 H        -2.468556        -0.372306         0.971296
 H        -1.789673        -0.774085        -0.765577
 H        -0.465133         3.169945         0.719829
 H        -1.952703         2.678104         1.496668
