19
Iteration:  1491
 O         0.482245         0.690906         0.839357
 C        -0.753615         0.949071         0.150804
 C        -0.698572         1.562054        -1.327580
 C        -1.993730         2.196562        -0.825292
 C        -2.946411         2.795386        -1.923568
 O        -3.381745         1.392818        -2.092623
 C        -2.959758         1.048629        -0.723574
 C        -2.080714        -0.104544        -0.039148
 C        -1.360571         2.397274         0.536232
 H         0.743452        -0.186612         0.753195
 H         0.317357         2.070135        -1.245942
 H        -0.622457         1.022386        -2.320159
 H        -3.671561         3.556275        -1.552118
 H        -2.574826         3.187847        -2.891890
 H        -3.628542         1.307184        -0.007583
 H        -2.607943        -0.464558         0.846905
 H        -1.797614        -0.922464        -0.663401
 H        -0.712722         3.229457         0.741148
 H        -2.143411         2.331657         1.438420
