19
Iteration:  3362charge 0 multiplicity 1
 O         0.293569         0.257318         0.834681
 C        -0.698120         1.018839         0.168240
 C        -0.642334         1.707323        -1.272965
 C        -2.010917         2.366661        -0.837941
 C        -3.081849         2.690932        -2.012228
 O        -3.387270         1.245837        -2.062183
 C        -2.815164         1.107069        -0.663911
 C        -1.893925         0.056496        -0.066675
 C        -1.423633         2.553001         0.535613
 H         1.096594         0.567232         0.452157
 H         0.286124         2.386684        -1.409102
 H        -0.603056         0.917426        -2.047733
 H        -4.018011         3.369389        -1.758289
 H        -2.739155         3.089375        -3.009545
 H        -3.562388         1.435019         0.167637
 H        -2.349570        -0.494932         0.789477
 H        -1.628329        -0.710590        -0.704911
 H        -0.680809         3.337019         0.745536
 H        -2.127118         2.634628         1.437467
