19
Iteration:   475
 O         0.359926         0.526742         0.768037
 C        -0.753461         0.939519         0.129927
 C        -0.598842         1.706690        -1.273844
 C        -2.003129         2.249104        -0.868727
 C        -3.044503         2.788318        -1.830043
 O        -3.299224         1.284429        -2.105365
 C        -2.864680         1.089990        -0.736473
 C        -1.979574         0.020293        -0.084224
 C        -1.502645         2.339669         0.667530
 H         1.017393         0.410100         0.065770
 H         0.144312         2.551460        -1.184198
 H        -0.551812         1.066816        -2.210408
 H        -3.932782         3.220559        -1.414905
 H        -2.472254         3.255561        -2.719317
 H        -3.686883         1.324400        -0.017866
 H        -2.301329        -0.600852         0.800577
 H        -1.725772        -0.643186        -0.938646
 H        -0.734239         3.146254         0.854522
 H        -2.377703         2.280980         1.335246
