19
Iteration:  2062
 O         0.356339         0.472787         0.681546
 C        -0.768376         1.074078         0.120126
 C        -0.587571         1.569484        -1.274165
 C        -1.987158         2.242564        -0.901351
 C        -2.887557         2.616217        -2.033487
 O        -3.583379         1.282216        -1.933749
 C        -2.964731         1.144849        -0.607423
 C        -2.007891         0.129547        -0.077702
 C        -1.215496         2.436847         0.575192
 H         0.375968         0.646428         1.663983
 H         0.340166         2.108174        -1.269390
 H        -0.512241         0.876932        -2.098228
 H        -3.605353         3.473752        -1.921723
 H        -2.421825         2.847693        -2.968902
 H        -3.644717         1.358692         0.136284
 H        -2.339479        -0.288357         0.869516
 H        -1.807397        -0.760432        -0.709141
 H        -0.291212         3.116859         0.565647
 H        -2.056664         2.570603         1.369945
