19
Iteration:  2607charge 0 multiplicity 1
 O         0.374807         0.436026         0.690959
 C        -0.811457         1.047155         0.167845
 C        -0.742169         1.518296        -1.334535
 C        -1.947510         2.346833        -0.823015
 C        -3.044026         2.671681        -2.022458
 O        -3.369420         1.265219        -2.000311
 C        -2.937347         1.156234        -0.655629
 C        -1.926325         0.146667         0.020422
 C        -1.231700         2.479208         0.556062
 H        -0.001810        -0.334489         1.241417
 H         0.165362         2.173448        -1.343479
 H        -0.738280         0.868291        -2.200550
 H        -3.949182         3.208067        -1.664881
 H        -2.584068         2.855531        -3.050962
 H        -3.622739         1.379566         0.087521
 H        -2.384957        -0.209466         0.857094
 H        -1.602473        -0.794425        -0.480611
 H        -0.361645         3.200446         0.428589
 H        -1.929933         2.639639         1.390002
