19
Iteration:    73
 O         0.372205         0.628515         0.945305
 C        -0.678783         0.995168         0.067343
 C        -0.673494         1.702921        -1.383241
 C        -1.956944         2.311671        -0.809641
 C        -2.986981         2.676460        -1.938266
 O        -3.432432         1.341910        -2.050761
 C        -2.919492         1.091100        -0.632186
 C        -1.929163        -0.017924        -0.217034
 C        -1.425148         2.225229         0.633986
 H         1.043118         0.239566         0.415653
 H         0.124227         2.441884        -1.566599
 H        -0.718483         1.156857        -2.327582
 H        -3.850110         3.318501        -1.576657
 H        -2.564833         2.984489        -2.875821
 H        -3.841094         1.202820         0.031848
 H        -2.225665        -0.583251         0.724380
 H        -1.775597        -0.668455        -1.097001
 H        -0.790156         3.014145         1.088068
 H        -2.210025         2.152644         1.448349
