19
Iteration:  1419
 O         0.379605         0.342416         0.723460
 C        -0.725856         0.973098         0.086691
 C        -0.591777         1.674494        -1.206311
 C        -1.945757         2.294150        -0.856665
 C        -2.997546         2.634525        -1.928099
 O        -3.375760         1.233006        -2.034572
 C        -2.962117         1.142422        -0.694372
 C        -1.942346         0.118342        -0.116966
 C        -1.484587         2.555435         0.555929
 H         0.244289         0.226381         1.624647
 H         0.083994         2.478404        -1.109101
 H        -0.434258         1.330126        -2.210039
 H        -3.793431         3.269546        -1.487874
 H        -2.662900         3.204174        -2.781413
 H        -3.717647         1.389033         0.087695
 H        -2.202881        -0.539041         0.861582
 H        -1.537778        -0.609061        -0.952129
 H        -0.810173         3.470312         0.639660
 H        -2.041835         2.449481         1.435122
