19
Iteration:  3453charge 0 multiplicity 1
 O         0.328922         0.361755         0.770766
 C        -0.756642         1.050733         0.130374
 C        -0.555891         1.670304        -1.269846
 C        -1.960610         2.227422        -0.929248
 C        -3.048316         2.650816        -1.915233
 O        -3.372305         1.271945        -2.043834
 C        -2.935218         1.136051        -0.623887
 C        -2.008983         0.058369        -0.050810
 C        -1.332339         2.528973         0.464040
 H         0.520282         0.673146         1.716648
 H         0.297685         2.390478        -1.272821
 H        -0.350757         0.932821        -2.118735
 H        -3.828414         3.240299        -1.414136
 H        -2.878440         3.241277        -2.861237
 H        -3.866460         1.325065         0.015466
 H        -2.396331        -0.461331         0.764859
 H        -1.690855        -0.715112        -0.745063
 H        -0.538315         3.322958         0.477429
 H        -2.010812         2.626394         1.356721
