19
Iteration:  2749charge 0 multiplicity 1
 O         0.363250         0.353701         0.808211
 C        -0.720475         0.974031         0.116887
 C        -0.606081         1.518279        -1.421433
 C        -1.933919         2.288481        -0.923987
 C        -3.054272         2.790385        -1.903019
 O        -3.372622         1.275046        -2.000512
 C        -2.876765         1.101613        -0.585855
 C        -2.027537         0.061566        -0.027806
 C        -1.344827         2.616631         0.458469
 H         0.250912         0.662056         1.767020
 H         0.155596         2.267016        -1.496404
 H        -0.726183         0.885325        -2.257119
 H        -3.853532         3.202873        -1.348927
 H        -3.115232         3.092018        -2.965214
 H        -3.779472         1.443672         0.121849
 H        -2.475306        -0.519911         0.839992
 H        -1.752492        -0.732039        -0.813734
 H        -0.376434         3.308860         0.577620
 H        -2.016773         2.707311         1.309855
