19
Iteration:  3573charge 0 multiplicity 1
 O         0.234326         0.448926         1.002277
 C        -0.750409         1.028746         0.071625
 C        -0.548409         1.621628        -1.455316
 C        -1.911594         2.308953        -1.004237
 C        -3.053238         2.623651        -1.963112
 O        -3.420264         1.272141        -1.928241
 C        -2.876794         1.147978        -0.588899
 C        -2.009646         0.019621        -0.046071
 C        -1.277616         2.493262         0.443802
 H         0.960571         0.152371         0.488005
 H         0.156523         2.464671        -1.617992
 H        -0.441711         0.917744        -2.356385
 H        -3.789208         3.313651        -1.345890
 H        -2.827384         3.155831        -2.977919
 H        -3.575952         1.478893         0.114190
 H        -2.472100        -0.243958         0.864624
 H        -2.045368        -0.872380        -0.645547
 H        -0.530918         3.223652         0.742059
 H        -1.943289         2.538057         1.286299
