19
Iteration:  4264charge 0 multiplicity 1
 O         0.258458         0.294803         0.768643
 C        -0.785809         1.055382         0.128252
 C        -0.554957         1.778231        -1.261519
 C        -1.990016         2.318564        -0.877064
 C        -3.000065         2.661126        -2.052186
 O        -3.481993         1.240826        -2.021104
 C        -2.826563         1.100753        -0.631167
 C        -1.874661         0.015755        -0.053939
 C        -1.408775         2.502205         0.599343
 H         1.077376         0.787279         1.107519
 H         0.288982         2.516966        -1.321624
 H        -0.484760         1.242759        -2.218416
 H        -3.728096         3.384846        -1.810183
 H        -2.595937         2.912926        -3.077789
 H        -3.512155         1.250060         0.204999
 H        -2.327699        -0.305612         0.865678
 H        -1.585563        -0.780255        -0.670346
 H        -0.589301         3.265024         0.588604
 H        -2.298300         2.555733         1.371538
