19
Iteration:  4224charge 0 multiplicity 1
 O         0.386395         0.568077         0.850504
 C        -0.764396         0.957743         0.178505
 C        -0.683278         1.634797        -1.311972
 C        -1.966686         2.258285        -0.831747
 C        -2.833232         2.710639        -2.051952
 O        -3.500047         1.295760        -2.044590
 C        -2.920300         1.117550        -0.581213
 C        -1.986441         0.004836        -0.136866
 C        -1.417592         2.361249         0.609573
 H         0.942993         1.151808         0.379986
 H         0.136323         2.339419        -1.380755
 H        -0.661516         0.993492        -2.248205
 H        -3.725326         3.376224        -1.728115
 H        -2.246367         2.910540        -2.915424
 H        -3.801209         1.443306         0.030376
 H        -2.320591        -0.696831         0.643767
 H        -1.732020        -0.654623        -1.052953
 H        -0.509937         2.990204         0.657453
 H        -2.020070         2.376962         1.457824
