19
Iteration:  1630charge 0 multiplicity 1
 O         0.416184         0.628655         0.699892
 C        -0.830261         0.974564         0.152570
 C        -0.665282         1.411359        -1.287685
 C        -1.991329         2.242552        -0.804462
 C        -2.940205         2.760691        -1.904656
 O        -3.352181         1.296612        -2.112852
 C        -2.957104         1.112992        -0.667512
 C        -2.051642         0.107708        -0.018136
 C        -1.275163         2.420617         0.519953
 H         0.237706         0.024100         1.460370
 H         0.208677         2.025580        -1.455159
 H        -0.709383         0.678357        -2.037275
 H        -3.689365         3.353127        -1.335080
 H        -2.805083         3.271893        -2.868417
 H        -3.845058         1.429442        -0.106261
 H        -2.540839        -0.382274         0.916069
 H        -1.686809        -0.690377        -0.765421
 H        -0.491972         3.248664         0.675855
 H        -1.778534         2.471063         1.454323
