19
Iteration:  3280charge 0 multiplicity 1
 O         0.446955         0.580208         0.795389
 C        -0.665251         1.084022         0.142259
 C        -0.643477         1.491471        -1.313869
 C        -1.972549         2.163899        -0.879220
 C        -2.851094         2.817502        -1.890545
 O        -3.505566         1.375164        -2.081692
 C        -3.012692         1.049184        -0.685072
 C        -2.049759        -0.003434        -0.029205
 C        -1.472441         2.310391         0.543212
 H         1.099438         1.280702         0.929465
 H         0.181894         2.127401        -1.373551
 H        -0.439073         0.723765        -2.032832
 H        -3.623366         3.691321        -1.527160
 H        -2.272502         2.990934        -2.836845
 H        -3.728249         1.421816        -0.001456
 H        -2.419197        -0.488426         0.896251
 H        -1.595023        -0.749933        -0.797883
 H        -0.711824         3.068330         0.520936
 H        -2.167470         2.285303         1.373171
