19
Iteration:  2341charge 0 multiplicity 1
 O         0.419560         0.606461         0.668369
 C        -0.793713         1.016949         0.169176
 C        -0.634015         1.440591        -1.283326
 C        -1.939117         2.229720        -0.901205
 C        -2.887545         2.676608        -2.019654
 O        -3.582445         1.315179        -1.947653
 C        -2.974994         1.197059        -0.638837
 C        -2.012494         0.065202        -0.081069
 C        -1.247873         2.388789         0.584306
 H         0.388225         0.323073         1.607730
 H         0.241558         2.046921        -1.510365
 H        -0.680238         0.586661        -1.998993
 H        -3.503187         3.531620        -1.865648
 H        -2.386286         3.111418        -2.902085
 H        -3.827850         1.490484         0.149327
 H        -2.312357        -0.374440         0.906540
 H        -1.796477        -0.667889        -0.785806
 H        -0.341191         3.014733         0.664212
 H        -1.917609         2.610041         1.466904
