19
Iteration:  3204
 O         0.208088         0.310488         0.787912
 C        -0.749582         1.035303         0.109019
 C        -0.532686         1.715521        -1.289788
 C        -1.930015         2.295933        -0.887223
 C        -3.023948         2.727746        -1.977282
 O        -3.428509         1.196032        -1.971359
 C        -2.869661         1.110578        -0.635760
 C        -1.990685         0.064534        -0.058799
 C        -1.311268         2.520999         0.488322
 H         0.902189         0.964816         0.956386
 H         0.232584         2.448600        -1.352706
 H        -0.471579         1.079310        -2.164694
 H        -3.876238         3.351336        -1.602651
 H        -2.568126         2.970949        -2.920938
 H        -3.774266         1.283343         0.086413
 H        -2.329790        -0.313199         0.920839
 H        -1.808370        -0.822456        -0.769984
 H        -0.523273         3.244460         0.686109
 H        -1.981255         2.624675         1.335822
