19
Iteration:   647
 O         0.428274         0.525867         0.784953
 C        -0.799844         0.977004         0.166439
 C        -0.704585         1.662393        -1.271989
 C        -1.943529         2.353933        -0.855595
 C        -2.966510         2.660429        -1.930186
 O        -3.353695         1.215081        -2.076986
 C        -2.980420         1.137785        -0.694530
 C        -1.988704         0.119148        -0.165723
 C        -1.374070         2.359043         0.691784
 H         1.004874        -0.080436         0.206785
 H         0.087793         2.391818        -1.335062
 H        -0.559952         1.104202        -2.181708
 H        -3.963419         3.143042        -1.510871
 H        -2.804295         3.177492        -2.948019
 H        -3.823627         1.214715         0.100390
 H        -2.408106        -0.459983         0.745568
 H        -1.679910        -0.625946        -0.968190
 H        -0.548369         3.122774         0.990748
 H        -2.017322         2.516710         1.514134
