19
Iteration:  3360charge 0 multiplicity 1
 O         0.288210         0.239623         0.842997
 C        -0.692619         1.008154         0.158145
 C        -0.634372         1.717173        -1.279634
 C        -2.030605         2.392571        -0.835878
 C        -3.064645         2.688953        -2.008963
 O        -3.386040         1.231037        -2.071506
 C        -2.831457         1.110057        -0.655968
 C        -1.879499         0.066500        -0.055103
 C        -1.432372         2.565109         0.542775
 H         1.107633         0.528543         0.456125
 H         0.249259         2.352909        -1.410274
 H        -0.658104         0.958570        -2.081715
 H        -4.045502         3.371732        -1.774618
 H        -2.796253         3.120081        -2.971288
 H        -3.527289         1.425426         0.113223
 H        -2.274648        -0.475120         0.819672
 H        -1.596555        -0.774367        -0.754099
 H        -0.630020         3.352493         0.692312
 H        -2.093124         2.612486         1.407708
