19
Iteration:  3743charge 0 multiplicity 1
 O         0.405326         0.598580         0.882847
 C        -0.752361         0.995346         0.188870
 C        -0.609317         1.488870        -1.353132
 C        -1.941475         2.248483        -0.946894
 C        -2.855310         2.697025        -2.119884
 O        -3.603158         1.310227        -1.946317
 C        -2.904298         1.172762        -0.649516
 C        -2.000921         0.019521        -0.045809
 C        -1.374773         2.385916         0.585386
 H         1.137343         0.378276         0.233279
 H         0.178209         2.263718        -1.244632
 H        -0.714819         0.807939        -2.151942
 H        -3.647823         3.486040        -1.710327
 H        -2.494911         2.754689        -3.130162
 H        -3.576411         1.558837         0.087561
 H        -2.613329        -0.315859         0.798169
 H        -1.749955        -0.732995        -0.735240
 H        -0.528751         3.037396         0.830424
 H        -2.181505         2.721611         1.359124
