19
Iteration:   595
 O         0.394266         0.521438         0.779166
 C        -0.700297         1.071670         0.130199
 C        -0.667546         1.687340        -1.292817
 C        -1.979074         2.264702        -0.833087
 C        -2.979561         2.757533        -1.822474
 O        -3.408970         1.280471        -2.098379
 C        -2.884687         1.034449        -0.706848
 C        -1.950080        -0.029805        -0.162991
 C        -1.389702         2.392580         0.581646
 H         0.031460        -0.028444         1.495544
 H         0.113236         2.405241        -1.512592
 H        -0.775299         0.872445        -2.035011
 H        -3.898379         3.239958        -1.510889
 H        -2.565029         3.308149        -2.732919
 H        -3.692041         1.296676        -0.016969
 H        -2.332134        -0.461701         0.745233
 H        -1.682901        -0.678588        -0.992714
 H        -0.860014         3.375032         0.697896
 H        -2.097232         2.295492         1.462602
