19
Iteration:  3425charge 0 multiplicity 1
 O         0.374919         0.510361         0.902520
 C        -0.746764         1.011733         0.118440
 C        -0.724530         1.552806        -1.349900
 C        -1.967112         2.225534        -0.871388
 C        -2.937382         2.760083        -1.981599
 O        -3.503426         1.373667        -2.033076
 C        -2.937872         1.062491        -0.733710
 C        -1.854558         0.009416        -0.090666
 C        -1.335414         2.426158         0.565803
 H         0.615682         1.102196         1.635032
 H         0.151898         2.089156        -1.627902
 H        -0.920427         0.699007        -1.966185
 H        -3.686705         3.564901        -1.623661
 H        -2.577950         3.208880        -2.883200
 H        -3.813986         1.030862        -0.109799
 H        -2.386427        -0.396731         0.828059
 H        -1.381220        -0.905373        -0.671141
 H        -0.462083         3.101527         0.491757
 H        -2.054504         2.378370         1.352507
