19
Iteration:  2606charge 0 multiplicity 1
 O         0.384696         0.438804         0.689668
 C        -0.817522         1.038063         0.173785
 C        -0.738579         1.518148        -1.330700
 C        -1.948275         2.350838        -0.816064
 C        -3.040340         2.675224        -2.032723
 O        -3.372982         1.264046        -1.994668
 C        -2.939127         1.162645        -0.657556
 C        -1.928825         0.133665         0.011630
 C        -1.231972         2.485699         0.552385
 H         0.021126        -0.315529         1.235574
 H         0.140171         2.149400        -1.358777
 H        -0.738278         0.882810        -2.185711
 H        -3.923723         3.227637        -1.682187
 H        -2.609833         2.841442        -3.048776
 H        -3.625861         1.420256         0.092686
 H        -2.403016        -0.237964         0.857016
 H        -1.582346        -0.808569        -0.451241
 H        -0.369156         3.198742         0.430650
 H        -1.970304         2.624251         1.400392
