19
Iteration:  4604charge 0 multiplicity 1
 O         0.308678         0.443742         0.846145
 C        -0.753722         1.044529         0.116245
 C        -0.625857         1.673975        -1.272528
 C        -2.005281         2.298952        -0.799911
 C        -2.951502         2.680002        -1.948033
 O        -3.452775         1.253356        -2.119014
 C        -2.844836         1.092506        -0.707161
 C        -1.903678         0.044042        -0.131153
 C        -1.394507         2.441051         0.640089
 H         0.989532         1.094737         0.823712
 H         0.135666         2.375495        -1.329300
 H        -0.800688         1.104138        -2.190778
 H        -3.837744         3.286706        -1.629711
 H        -2.563153         2.985922        -2.923912
 H        -3.714199         1.058679        -0.047444
 H        -2.414591        -0.403915         0.687501
 H        -1.707333        -0.819834        -0.848406
 H        -0.597968         3.070563         0.792791
 H        -2.046726         2.384503         1.483361
