19
Iteration:  2095charge 0 multiplicity 1
 O         0.559228         0.551426         0.660540
 C        -0.721084         0.930529         0.168817
 C        -0.805282         1.531201        -1.342699
 C        -2.007022         2.302776        -0.837122
 C        -2.867564         2.696816        -2.092864
 O        -3.447099         1.345965        -1.980277
 C        -2.939516         1.136420        -0.581135
 C        -2.036549         0.052690         0.015204
 C        -1.407934         2.410880         0.509673
 H         0.493674         0.357513         1.667879
 H         0.180842         1.882116        -1.370740
 H        -0.963849         0.734750        -2.022966
 H        -3.607224         3.473467        -1.786564
 H        -2.167203         2.817440        -2.869958
 H        -3.664281         1.498608         0.059088
 H        -2.455989        -0.149784         0.996686
 H        -2.143701        -0.918249        -0.540620
 H        -0.470701         3.102074         0.726457
 H        -2.184782         2.706750         1.389761
