19
Iteration:  3420charge 0 multiplicity 1
 O         0.403608         0.544881         0.921968
 C        -0.741705         1.013311         0.139036
 C        -0.743717         1.552102        -1.386350
 C        -1.955933         2.243716        -0.846372
 C        -2.935757         2.773864        -2.016552
 O        -3.470881         1.419747        -1.995217
 C        -2.962070         1.026434        -0.745465
 C        -1.905450        -0.035405        -0.108721
 C        -1.350844         2.367823         0.533272
 H         0.659641         1.261916         1.576172
 H         0.175285         2.183884        -1.588713
 H        -0.881528         0.669332        -2.070975
 H        -3.626568         3.403629        -1.533620
 H        -2.527908         3.044417        -3.052458
 H        -3.823404         1.128185         0.064667
 H        -2.422591        -0.320506         0.766933
 H        -1.416244        -0.857113        -0.597657
 H        -0.523368         3.089269         0.545358
 H        -2.006586         2.257951         1.456277
