19
Iteration:  3252charge 0 multiplicity 1
 O         0.284031         0.433888         0.950909
 C        -0.717477         1.002423         0.125696
 C        -0.654019         1.628136        -1.337493
 C        -1.939430         2.341173        -0.887449
 C        -3.018897         2.700415        -1.967123
 O        -3.527076         1.373344        -1.992124
 C        -2.845416         1.077065        -0.717672
 C        -1.912646        -0.072040        -0.134201
 C        -1.364596         2.439484         0.508184
 H         1.129126         0.986441         0.922120
 H         0.324984         2.228691        -1.417056
 H        -0.660809         0.959749        -2.250861
 H        -3.749231         3.361529        -1.658559
 H        -2.550716         2.926394        -2.915936
 H        -3.630844         1.324662         0.095463
 H        -2.355668        -0.463467         0.770343
 H        -1.465846        -0.858660        -0.714747
 H        -0.445525         3.148850         0.512615
 H        -1.902614         2.662130         1.462761
