19
Iteration:  2419charge 0 multiplicity 1
 O         0.489388         0.478933         0.735700
 C        -0.729209         0.959252         0.125820
 C        -0.682876         1.500332        -1.298353
 C        -1.939319         2.330423        -0.913276
 C        -3.003771         2.697613        -2.006766
 O        -3.440768         1.277474        -1.990311
 C        -2.950327         1.220549        -0.512293
 C        -2.035519         0.065205        -0.004116
 C        -1.297996         2.487370         0.481263
 H         0.093124        -0.147868         1.317017
 H         0.196823         2.131067        -1.513539
 H        -0.883722         0.838486        -2.181151
 H        -3.710418         3.504246        -1.691636
 H        -2.512266         2.865723        -3.012799
 H        -3.932506         1.519229        -0.021202
 H        -2.515401        -0.401510         0.837471
 H        -1.904292        -0.710254        -0.713518
 H        -0.494014         3.156191         0.488631
 H        -2.051394         2.610814         1.319827
