19
Iteration:  2679
 O         0.512633         0.573176         0.683949
 C        -0.806628         0.976845         0.158922
 C        -0.662839         1.470174        -1.312477
 C        -1.954665         2.223627        -0.914721
 C        -2.866635         2.704051        -2.049464
 O        -3.544013         1.333903        -1.943584
 C        -2.975799         1.135685        -0.637883
 C        -2.027524         0.091355        -0.070012
 C        -1.327427         2.472049         0.618674
 H         0.291439         0.337703         1.648043
 H         0.273301         2.089893        -1.432230
 H        -0.684694         0.665303        -2.130180
 H        -3.526932         3.538039        -1.691404
 H        -2.296898         2.816398        -2.933419
 H        -3.865938         1.327750         0.130682
 H        -2.450419        -0.557106         0.870399
 H        -1.748314        -0.688916        -0.811000
 H        -0.540874         3.174952         0.748679
 H        -2.103399         2.498243         1.453519
