19
Iteration:  3068
 O         0.293266         0.396610         0.815865
 C        -0.758199         1.002942         0.134829
 C        -0.634004         1.616400        -1.257196
 C        -1.947722         2.306587        -0.856229
 C        -2.968148         2.667705        -2.048809
 O        -3.507300         1.324135        -1.938565
 C        -2.839184         1.150045        -0.603218
 C        -1.945290         0.005779        -0.195769
 C        -1.331528         2.466913         0.521579
 H         0.736778         1.184063         1.189446
 H         0.239501         2.232178        -1.310284
 H        -0.570237         1.000686        -2.129215
 H        -3.770922         3.375821        -1.723317
 H        -2.409263         2.869692        -3.017918
 H        -3.721163         1.335997         0.149175
 H        -2.421855        -0.444661         0.692143
 H        -1.677684        -0.815054        -0.900299
 H        -0.424166         3.056464         0.657345
 H        -2.087109         2.665779         1.238422
