19
Iteration:  2001
 O         0.323482         0.571244         0.852042
 C        -0.791136         1.031943         0.074997
 C        -0.664080         1.516844        -1.389685
 C        -1.949617         2.217488        -0.944109
 C        -3.020280         2.727727        -1.939387
 O        -3.484335         1.310832        -2.017236
 C        -2.892875         1.092827        -0.620369
 C        -1.993783         0.108899         0.031313
 C        -1.133814         2.420730         0.499167
 H         0.170868        -0.390919         0.930369
 H         0.223875         2.239658        -1.394283
 H        -0.704602         0.794769        -2.244198
 H        -3.846352         3.232084        -1.467464
 H        -2.695071         3.130640        -2.922608
 H        -3.736636         1.369194         0.057516
 H        -2.394286        -0.207741         1.007283
 H        -1.644815        -0.796959        -0.570300
 H        -0.328695         3.162483         0.598546
 H        -1.738251         2.557460         1.325676
