19
Iteration:  1017charge 0 multiplicity 1
 O         0.450941         0.576536         0.733916
 C        -0.722047         1.018006         0.147519
 C        -0.714393         1.558659        -1.257078
 C        -1.997240         2.281898        -0.855050
 C        -2.851448         2.760828        -2.013733
 O        -3.559499         1.282176        -2.025112
 C        -2.943683         1.119767        -0.636585
 C        -1.932500         0.000620        -0.081521
 C        -1.361247         2.415901         0.570765
 H         0.262585        -0.185918         1.399201
 H         0.098757         2.254795        -1.436990
 H        -0.764547         0.751213        -1.984105
 H        -3.588191         3.506337        -1.881512
 H        -2.306798         2.811921        -2.920059
 H        -3.677990         1.210114         0.254763
 H        -2.347605        -0.411244         0.812243
 H        -1.676041        -0.611641        -0.884216
 H        -0.614015         3.184122         0.607583
 H        -1.992999         2.484462         1.418630
