19
Iteration:   255
 O         0.361612         0.490984         0.826800
 C        -0.700432         1.018523         0.144410
 C        -0.662583         1.797301        -1.315146
 C        -1.985269         2.358376        -0.760493
 C        -3.066040         2.702808        -1.771329
 O        -3.295726         1.240173        -2.141199
 C        -2.911077         1.053914        -0.695481
 C        -1.925927        -0.021062        -0.278465
 C        -1.433828         2.408153         0.646131
 H        -0.026027        -0.407549         1.077633
 H         0.196342         2.527808        -1.561328
 H        -0.561308         1.091159        -2.207013
 H        -3.991337         3.212286        -1.485154
 H        -2.611402         3.217575        -2.722816
 H        -3.764688         1.100529         0.013274
 H        -2.205466        -0.786761         0.465830
 H        -1.584286        -0.601112        -1.127487
 H        -0.645165         3.180932         0.889979
 H        -2.244991         2.549656         1.275205
