19
Iteration:  1020
 O         0.452577         0.566581         0.728732
 C        -0.726848         1.022330         0.154792
 C        -0.694008         1.563426        -1.246640
 C        -1.996141         2.280323        -0.869340
 C        -2.860798         2.761691        -2.046926
 O        -3.572371         1.279627        -2.018413
 C        -2.939320         1.106890        -0.635471
 C        -1.934632         0.001994        -0.064553
 C        -1.362729         2.416516         0.589672
 H         0.195018        -0.140909         1.295567
 H         0.031911         2.335206        -1.442849
 H        -0.763704         0.774825        -2.003545
 H        -3.607934         3.566012        -1.844306
 H        -2.218385         2.886429        -2.964033
 H        -3.643634         1.170175         0.295658
 H        -2.389531        -0.481668         0.772964
 H        -1.615482        -0.598377        -0.882288
 H        -0.493228         3.155376         0.619175
 H        -2.019846         2.555455         1.429159
