19
Iteration:  4783charge 0 multiplicity 1
 O         0.260995         0.447627         0.834755
 C        -0.749274         1.038211         0.138783
 C        -0.629673         1.672110        -1.227187
 C        -1.975803         2.280691        -0.851422
 C        -3.013235         2.670428        -1.939019
 O        -3.338857         1.195678        -2.036189
 C        -2.878416         1.140213        -0.673258
 C        -1.946650         0.039576        -0.231155
 C        -1.418091         2.441316         0.597131
 H         0.988833         1.097047         0.629628
 H         0.080113         2.587762        -1.286397
 H        -0.295088         1.055786        -2.073054
 H        -3.876711         3.316095        -1.511728
 H        -2.501078         3.075885        -2.856968
 H        -3.859765         1.379120        -0.036726
 H        -2.378702        -0.450607         0.712869
 H        -1.676736        -0.604523        -1.044293
 H        -0.473051         3.060875         0.668224
 H        -2.046319         2.384203         1.479444
