19
Iteration:  3439charge 0 multiplicity 1
 O         0.314402         0.424120         0.818009
 C        -0.711103         1.055754         0.174084
 C        -0.620116         1.510074        -1.308620
 C        -1.995079         2.292156        -0.861294
 C        -2.989720         2.737282        -1.895257
 O        -3.504198         1.316014        -2.142185
 C        -2.871657         1.042114        -0.656819
 C        -1.903152         0.038544        -0.070935
 C        -1.337903         2.490590         0.496484
 H         0.433937         0.932693         1.611522
 H         0.118005         2.387322        -1.461457
 H        -0.654591         0.849872        -2.177006
 H        -3.925532         3.335278        -1.472572
 H        -2.455433         2.997089        -2.841798
 H        -3.596544         1.368644         0.059118
 H        -2.163854        -0.444417         0.926218
 H        -1.637447        -0.652109        -0.781332
 H        -0.588118         3.258677         0.565454
 H        -1.965797         2.714241         1.441267
