19
Iteration:   792charge 0 multiplicity 1
 O         0.432961         0.568079         0.700255
 C        -0.731353         0.995114         0.122916
 C        -0.636222         1.570638        -1.282868
 C        -1.991609         2.272483        -0.793803
 C        -2.915126         2.776176        -2.003150
 O        -3.463667         1.348057        -2.039743
 C        -2.955725         1.016481        -0.698725
 C        -1.949632        -0.022768        -0.025135
 C        -1.444837         2.511515         0.631131
 H         0.527845        -0.341060         0.788258
 H         0.072143         2.302367        -1.258627
 H        -0.736779         0.953582        -2.114267
 H        -3.650019         3.546438        -1.891331
 H        -2.334596         2.912740        -2.937363
 H        -3.863976         0.986710         0.024437
 H        -2.324133        -0.416339         0.912784
 H        -1.645757        -1.007286        -0.468651
 H        -0.646149         3.180834         0.720069
 H        -2.026414         2.394132         1.470601
