19
Iteration:  3160
 O         0.443267         0.607967         0.771824
 C        -0.788400         1.037113         0.096866
 C        -0.705157         1.371922        -1.348225
 C        -2.060071         2.202287        -0.788043
 C        -2.801825         2.817307        -1.944737
 O        -3.377201         1.335420        -2.105161
 C        -3.037283         1.125781        -0.656968
 C        -2.047831         0.026584        -0.015150
 C        -1.358183         2.371365         0.617364
 H         1.243997         1.053999         0.455677
 H         0.006325         2.144638        -1.571860
 H        -0.581347         0.641423        -2.141495
 H        -3.704664         3.377168        -1.624092
 H        -2.154770         3.117761        -2.723789
 H        -3.942051         1.372613         0.104427
 H        -2.524525        -0.266380         0.970070
 H        -1.755486        -0.899724        -0.606125
 H        -0.630801         3.195207         0.662476
 H        -2.044254         2.336144         1.494986
