19
Iteration:  3061
 O         0.358992         0.454781         0.829114
 C        -0.774793         1.016347         0.187010
 C        -0.668408         1.550593        -1.318500
 C        -1.946698         2.329260        -0.897787
 C        -2.920475         2.659604        -1.983500
 O        -3.543318         1.329200        -1.980742
 C        -2.908429         1.170344        -0.653975
 C        -1.947657         0.008029        -0.186731
 C        -1.321235         2.416333         0.546986
 H         0.847038         1.026889         1.381202
 H         0.133127         2.318744        -1.410445
 H        -0.465605         0.753937        -2.075218
 H        -3.615386         3.464539        -1.772525
 H        -2.435308         2.870753        -2.913060
 H        -3.683834         1.385963         0.098289
 H        -2.310441        -0.600995         0.760075
 H        -1.749010        -0.658811        -1.009419
 H        -0.544220         3.147169         0.773306
 H        -1.995965         2.533799         1.492520
