19
Iteration:  3664charge 0 multiplicity 1
 O         0.418047         0.388201         0.772474
 C        -0.754223         1.038111         0.190172
 C        -0.737905         1.493263        -1.337521
 C        -1.979739         2.272678        -0.921772
 C        -2.947404         2.727177        -1.981013
 O        -3.338905         1.240855        -2.093698
 C        -2.996038         1.147754        -0.632478
 C        -2.033446         0.147449         0.092935
 C        -1.268983         2.490810         0.502799
 H         0.679346         1.142973         1.387348
 H         0.080819         2.186322        -1.690880
 H        -0.759747         0.721587        -2.133332
 H        -3.889155         3.333872        -1.579076
 H        -2.814655         3.099330        -3.036042
 H        -3.865291         1.396506        -0.096673
 H        -2.443638        -0.187586         1.004492
 H        -1.963727        -0.736985        -0.574645
 H        -0.427475         3.218023         0.648955
 H        -1.856960         2.540350         1.469656
