19
Iteration:  1606
 O         0.499448         0.515481         0.715626
 C        -0.769050         0.954910         0.125311
 C        -0.708974         1.573569        -1.306332
 C        -2.034902         2.273447        -0.817430
 C        -2.866489         2.767339        -1.986320
 O        -3.423151         1.344749        -2.089104
 C        -2.927158         1.069463        -0.649178
 C        -2.054740        -0.006017         0.050396
 C        -1.375470         2.411732         0.518823
 H         0.397952         0.702729         1.616793
 H         0.171555         2.153808        -1.574400
 H        -0.865561         0.845657        -2.109018
 H        -3.629276         3.551948        -1.739352
 H        -2.434961         3.116722        -2.941929
 H        -3.799405         1.324017        -0.111809
 H        -2.548168        -0.155413         1.037944
 H        -1.819342        -0.941214        -0.504629
 H        -0.514788         3.178442         0.853288
 H        -1.946383         2.518868         1.438436
