19
Iteration:  3025
 O         0.465322         0.613763         0.792044
 C        -0.785977         0.928507         0.108541
 C        -0.660776         1.487486        -1.323522
 C        -1.939773         2.261214        -0.894251
 C        -2.944830         2.789946        -1.880790
 O        -3.468006         1.418516        -2.073639
 C        -2.923269         1.076571        -0.710564
 C        -2.010450        -0.032741        -0.016452
 C        -1.358389         2.377277         0.504497
 H         0.317553         0.678716         1.726294
 H         0.063736         2.266078        -1.448013
 H        -0.543587         0.848162        -2.164924
 H        -3.771561         3.439621        -1.525961
 H        -2.401589         2.987573        -2.863324
 H        -3.833530         1.331856         0.039753
 H        -2.471454        -0.266506         1.114863
 H        -1.879042        -1.104353        -0.422545
 H        -0.483368         2.966365         0.477255
 H        -2.082175         2.278157         1.334766
