19
Iteration:  2352
 O         0.445763         0.501053         0.731738
 C        -0.716775         1.044531         0.192208
 C        -0.650737         1.436069        -1.284577
 C        -1.940296         2.246978        -0.883592
 C        -2.904950         2.717522        -1.932470
 O        -3.544979         1.320960        -1.982716
 C        -2.952175         1.128876        -0.591921
 C        -2.064947         0.086941        -0.136116
 C        -1.294936         2.496545         0.442181
 H         0.399910         0.449807         1.748550
 H         0.208151         2.078897        -1.455493
 H        -0.761931         0.670754        -2.080406
 H        -3.647211         3.384240        -1.563379
 H        -2.508184         2.707298        -2.935335
 H        -3.715834         1.578251         0.197222
 H        -2.328576        -0.500454         0.772061
 H        -1.889945        -0.607429        -0.896697
 H        -0.515947         3.267920         0.426970
 H        -1.968657         2.526163         1.351140
