19
Iteration:  1393
 O         0.418100         0.605341         0.763255
 C        -0.810775         0.992375         0.158043
 C        -0.616047         1.604095        -1.259646
 C        -1.912388         2.273462        -0.885155
 C        -3.029596         2.727178        -1.947974
 O        -3.410965         1.344904        -2.032064
 C        -2.891839         1.090588        -0.758792
 C        -1.966654        -0.015964        -0.135114
 C        -1.429267         2.319366         0.617247
 H         0.271739         0.218032         1.583882
 H         0.316015         2.166463        -1.556378
 H        -0.932872         0.871502        -2.028973
 H        -3.790767         3.467104        -1.646315
 H        -2.529509         3.112291        -2.855036
 H        -3.627474         1.306492         0.172229
 H        -2.376349        -0.347081         0.731029
 H        -1.581304        -0.791168        -0.688355
 H        -0.597252         2.980875         0.719194
 H        -1.998668         2.517864         1.620211
