19
Iteration:  3418
 O         0.412293         0.559214         0.925523
 C        -0.735583         1.013100         0.150261
 C        -0.743278         1.541306        -1.396630
 C        -1.960817         2.254776        -0.842470
 C        -2.925787         2.769959        -2.024747
 O        -3.460411         1.436120        -1.988320
 C        -2.968742         1.017083        -0.739201
 C        -1.926351        -0.051883        -0.121275
 C        -1.355003         2.340732         0.517275
 H         0.663958         1.337726         1.539166
 H         0.174171         2.238352        -1.583664
 H        -0.847829         0.719580        -2.139176
 H        -3.700227         3.423776        -1.480997
 H        -2.513091         2.963286        -3.077039
 H        -3.741980         1.174357         0.079399
 H        -2.450403        -0.338406         0.817065
 H        -1.482178        -0.826044        -0.567592
 H        -0.578697         3.094586         0.612246
 H        -1.981720         2.262867         1.506130
