19
Iteration:   448charge 0 multiplicity 1
 O         0.423624         0.564127         0.837616
 C        -0.664889         0.995646         0.099242
 C        -0.701477         1.686018        -1.213839
 C        -2.103202         2.251816        -0.747398
 C        -2.925793         2.789522        -1.964719
 O        -3.448238         1.363270        -2.135528
 C        -2.939385         1.019735        -0.834560
 C        -1.888651        -0.023937        -0.141809
 C        -1.430553         2.352708         0.741152
 H         0.878770        -0.103331         0.311359
 H        -0.028094         2.488076        -1.387679
 H        -0.874340         1.072819        -2.066268
 H        -3.824773         3.373239        -1.706493
 H        -2.287291         3.048223        -2.752258
 H        -3.775808         1.137530        -0.097530
 H        -2.170922        -0.480118         0.828545
 H        -1.635384        -0.899187        -0.805221
 H        -0.666636         3.182709         0.726480
 H        -1.989150         2.086926         1.681566
