19
Iteration:  4201charge 0 multiplicity 1
 O         0.332196         0.569311         0.880910
 C        -0.734191         1.019303         0.106681
 C        -0.637270         1.541273        -1.300503
 C        -1.971432         2.300620        -0.825840
 C        -3.009247         2.752820        -1.927379
 O        -3.390242         1.340873        -2.088652
 C        -2.890938         1.058380        -0.676541
 C        -1.970113        -0.011106        -0.101720
 C        -1.382284         2.372357         0.525479
 H         1.167642         0.850201         0.368033
 H         0.254531         2.160560        -1.387560
 H        -0.611513         0.778761        -2.119112
 H        -3.869776         3.312907        -1.340105
 H        -2.638209         3.078296        -2.881258
 H        -3.825330         1.290859        -0.110953
 H        -2.510907        -0.115531         0.831357
 H        -1.799363        -1.063513        -0.457808
 H        -0.539763         3.062779         0.770568
 H        -2.167076         2.275962         1.271151
