19
Iteration:  1995
 O         0.368056         0.584050         0.859207
 C        -0.765595         0.970110         0.096684
 C        -0.692413         1.520134        -1.384895
 C        -1.908134         2.274979        -0.929370
 C        -3.023269         2.735049        -1.982996
 O        -3.492791         1.307458        -2.030072
 C        -2.936992         1.090550        -0.601122
 C        -2.007719         0.079144         0.033217
 C        -1.162788         2.441920         0.500244
 H         0.419990        -0.360968         0.825492
 H         0.102064         2.204268        -1.438023
 H        -0.646677         0.936833        -2.292420
 H        -3.808682         3.504670        -1.657285
 H        -2.612325         3.141298        -2.926709
 H        -3.753471         1.277038         0.100743
 H        -2.383763        -0.334016         0.994744
 H        -1.820790        -0.894183        -0.380026
 H        -0.287814         3.090697         0.439217
 H        -1.864217         2.429789         1.508453
