19
Iteration:  2698
 O         0.458312         0.510271         0.725116
 C        -0.641729         1.010610         0.147401
 C        -0.688861         1.576389        -1.250648
 C        -1.957413         2.276719        -0.894340
 C        -2.845835         2.640004        -2.030276
 O        -3.560935         1.398663        -1.933139
 C        -2.974272         1.197538        -0.575834
 C        -2.050282        -0.068632        -0.083557
 C        -1.376044         2.378510         0.485154
 H         0.448568         0.750984         1.665974
 H         0.134889         2.362081        -1.393151
 H        -0.629362         0.973451        -2.216063
 H        -3.710182         3.356181        -2.014075
 H        -2.204658         2.678472        -2.966890
 H        -3.654312         1.603930         0.048624
 H        -2.308895        -0.490994         0.856765
 H        -1.909993        -0.928197        -0.687175
 H        -0.617086         3.114663         0.413488
 H        -2.108496         2.498763         1.268419
