19
Iteration:  4672charge 0 multiplicity 1
 O         0.316242         0.467127         0.832961
 C        -0.676700         1.000216         0.169378
 C        -0.678609         1.639998        -1.266053
 C        -2.065310         2.277074        -0.837310
 C        -2.982854         2.698352        -2.035680
 O        -3.382920         1.354733        -2.128036
 C        -2.916594         1.036668        -0.644845
 C        -1.878516         0.058315        -0.111592
 C        -1.430035         2.363974         0.613589
 H         1.080094         1.054170         0.927866
 H        -0.003626         2.518432        -1.490052
 H        -0.722698         0.995163        -2.174251
 H        -3.752975         3.379837        -1.546588
 H        -2.393405         3.185609        -2.847298
 H        -3.788033         1.014520         0.046290
 H        -2.265717        -0.467066         0.785393
 H        -1.491696        -0.784514        -0.683475
 H        -0.655834         3.177501         0.765963
 H        -2.013924         2.471652         1.506339
