19
Iteration:  3206charge 0 multiplicity 1
 O         0.193198         0.309718         0.789351
 C        -0.756561         1.043008         0.093440
 C        -0.515041         1.718632        -1.280616
 C        -1.929308         2.297355        -0.880916
 C        -3.033783         2.716678        -1.967751
 O        -3.422652         1.195809        -1.971337
 C        -2.873400         1.103798        -0.626164
 C        -1.990824         0.074342        -0.061131
 C        -1.308154         2.522402         0.485774
 H         0.953812         0.944228         1.007907
 H         0.290975         2.463749        -1.381888
 H        -0.473158         1.056491        -2.196165
 H        -3.809374         3.332930        -1.604648
 H        -2.623193         2.915766        -2.888004
 H        -3.764449         1.274175         0.077481
 H        -2.283409        -0.304143         0.857242
 H        -1.872991        -0.762405        -0.827321
 H        -0.450536         3.290726         0.639716
 H        -2.031643         2.569359         1.298515
