19
Iteration:  3085
 O         0.177704         0.303789         0.832714
 C        -0.763689         0.951685         0.060992
 C        -0.543067         1.726903        -1.309909
 C        -1.911259         2.354181        -0.911699
 C        -2.987952         2.680541        -1.986610
 O        -3.430096         1.242925        -1.915583
 C        -2.891377         1.124327        -0.639952
 C        -1.951357         0.011604        -0.077199
 C        -1.386964         2.569349         0.520426
 H         1.094548         0.707324         0.810945
 H         0.264360         2.554313        -1.282562
 H        -0.369740         1.133386        -2.316119
 H        -3.768391         3.387466        -1.712677
 H        -2.686753         2.786202        -2.995924
 H        -3.586774         1.414057         0.092545
 H        -2.112475        -0.519126         0.853875
 H        -1.731793        -0.704517        -0.883410
 H        -0.593884         3.404734         0.578515
 H        -1.868243         2.649912         1.534409
