19
Iteration:  1475charge 0 multiplicity 1
 O         0.491170         0.634333         0.782025
 C        -0.739943         0.989487         0.112139
 C        -0.672713         1.540032        -1.290023
 C        -1.976716         2.308735        -0.824692
 C        -2.905415         2.728634        -1.922395
 O        -3.353420         1.286623        -2.084545
 C        -2.976268         1.137437        -0.659299
 C        -2.068571         0.037869        -0.111645
 C        -1.438982         2.355788         0.620581
 H         0.515349        -0.331570         0.961570
 H        -0.047116         2.394709        -1.535667
 H        -0.746478         0.825846        -2.091537
 H        -3.817627         3.269690        -1.596286
 H        -2.351588         3.143846        -2.772032
 H        -3.966225         1.326803        -0.049893
 H        -2.434313        -0.433548         0.908059
 H        -1.872488        -0.831251        -0.885743
 H        -0.564253         3.064743         0.703228
 H        -2.180740         2.264388         1.323628
