19
Iteration:  3834charge 0 multiplicity 1
 O         0.418451         0.473202         0.792911
 C        -0.747900         0.993443         0.164024
 C        -0.639598         1.609511        -1.304978
 C        -1.980968         2.285399        -0.884491
 C        -2.961532         2.685875        -1.947419
 O        -3.377991         1.193786        -2.052805
 C        -2.949682         1.145866        -0.601868
 C        -2.030736         0.135303         0.031857
 C        -1.351870         2.528238         0.406049
 H         0.127312        -0.463855         0.799379
 H         0.149821         2.279383        -1.275576
 H        -0.510289         0.820219        -2.053097
 H        -3.843884         3.141018        -1.509771
 H        -2.678199         3.082072        -2.958510
 H        -3.731487         1.385076         0.054562
 H        -2.539819        -0.286493         0.926750
 H        -1.810377        -0.613828        -0.709612
 H        -0.529841         3.303959         0.432430
 H        -1.940480         2.673563         1.314897
