19
Iteration:  2903charge 0 multiplicity 1
 O         0.420298         0.604977         0.769098
 C        -0.787320         1.016195         0.155663
 C        -0.639298         1.413233        -1.291943
 C        -1.953189         2.254987        -0.944956
 C        -2.967421         2.787421        -1.838402
 O        -3.479709         1.353728        -2.065652
 C        -2.930803         1.082012        -0.687791
 C        -2.008705        -0.029984        -0.099097
 C        -1.319983         2.446614         0.515168
 H         0.475849         0.777309         1.689141
 H         0.159134         2.078474        -1.518891
 H        -0.702469         0.785435        -2.129039
 H        -3.687554         3.482602        -1.352068
 H        -2.499274         3.258706        -2.752541
 H        -3.767576         1.152459        -0.008732
 H        -2.538777        -0.471308         0.897717
 H        -1.602030        -1.012315        -0.578242
 H        -0.317784         3.070763         0.548894
 H        -1.903622         2.491680         1.456952
