19
Iteration:   254
 O         0.358383         0.497612         0.830008
 C        -0.700956         1.014535         0.141989
 C        -0.648404         1.801563        -1.320480
 C        -1.986152         2.360897        -0.760941
 C        -3.063257         2.701099        -1.771524
 O        -3.298697         1.238625        -2.138642
 C        -2.912830         1.057215        -0.694031
 C        -1.931358        -0.028542        -0.277511
 C        -1.431165         2.404268         0.645794
 H        -0.015712        -0.377556         1.072435
 H         0.191330         2.525094        -1.529952
 H        -0.606469         1.121835        -2.225418
 H        -3.979148         3.221396        -1.487546
 H        -2.614218         3.217360        -2.721436
 H        -3.760597         1.100492         0.013704
 H        -2.188885        -0.798526         0.464383
 H        -1.604631        -0.621147        -1.144722
 H        -0.661557         3.157618         0.902060
 H        -2.231504         2.540463         1.258575
