19
Iteration:  2758
 O         0.350930         0.413237         0.773773
 C        -0.671048         0.963197         0.125610
 C        -0.650635         1.519541        -1.349674
 C        -1.895829         2.336256        -0.891664
 C        -3.057197         2.705040        -1.862408
 O        -3.350274         1.289334        -2.017876
 C        -2.938009         1.138370        -0.620256
 C        -2.033161         0.004130        -0.024748
 C        -1.324548         2.575068         0.375434
 H         0.228300         0.508013         1.772231
 H         0.093779         2.320302        -1.410722
 H        -0.839049         0.959592        -2.247656
 H        -3.838059         3.243312        -1.309018
 H        -2.809342         3.307300        -2.707683
 H        -3.825310         1.208917         0.010072
 H        -2.488467        -0.304052         1.056272
 H        -1.897247        -0.860799        -0.783039
 H        -0.378863         3.121021         0.571908
 H        -2.015772         2.945179         1.139691
