19
Iteration:   110charge 0 multiplicity 1
 O         0.405746         0.566938         0.588453
 C        -0.780973         1.046803         0.195125
 C        -0.639000         1.723923        -1.185326
 C        -2.046654         2.238921        -0.745183
 C        -2.941126         2.664861        -1.835017
 O        -3.368043         1.324214        -2.175561
 C        -2.935937         0.958552        -0.753273
 C        -1.914453        -0.009151        -0.128954
 C        -1.423114         2.473543         0.700689
 H         0.304318        -0.152403         1.175170
 H         0.175929         2.442338        -1.322209
 H        -0.619846         0.943454        -1.957720
 H        -3.743342         3.338296        -1.459849
 H        -2.471102         3.215247        -2.692951
 H        -3.874575         0.922898        -0.164967
 H        -2.429775        -0.489215         0.690440
 H        -1.505251        -0.829369        -0.760351
 H        -0.709254         3.240425         0.701152
 H        -2.164542         2.541364         1.420389
