19
Iteration:   353
 O         0.430243         0.512952         0.759180
 C        -0.779551         0.988549         0.139277
 C        -0.651520         1.781015        -1.211920
 C        -2.075193         2.304397        -0.746578
 C        -2.944486         2.745156        -1.846923
 O        -3.407838         1.340714        -2.083548
 C        -2.934790         0.978607        -0.802496
 C        -1.894451        -0.041371        -0.239659
 C        -1.434459         2.390095         0.592879
 H         0.140754         0.249170         1.700311
 H         0.244139         2.465946        -1.378453
 H        -0.646506         0.963297        -1.975027
 H        -3.791505         3.354438        -1.565859
 H        -2.360643         3.072486        -2.816020
 H        -3.727489         0.992937        -0.027230
 H        -2.217619        -0.696566         0.625328
 H        -1.347196        -0.695483        -0.934065
 H        -0.631225         3.187247         0.738435
 H        -2.061773         2.290787         1.422412
