19
Iteration:  3309charge 0 multiplicity 1
 O         0.405042         0.490710         0.731418
 C        -0.765290         0.921498         0.111815
 C        -0.775723         1.561877        -1.270125
 C        -1.940439         2.367940        -0.822010
 C        -2.999165         2.723314        -1.980511
 O        -3.322175         1.276727        -2.102423
 C        -2.927051         1.099483        -0.677096
 C        -1.982280         0.043889        -0.035811
 C        -1.373942         2.444025         0.649959
 H         0.870197         1.290585         0.915436
 H         0.232468         2.133461        -1.215007
 H        -0.798901         0.865546        -2.125816
 H        -3.723437         3.362228        -1.679382
 H        -2.679171         3.112563        -2.985144
 H        -3.844137         1.285262        -0.012966
 H        -2.410361        -0.343393         0.946250
 H        -1.794414        -0.782176        -0.648214
 H        -0.408720         2.914487         0.780531
 H        -2.213189         2.528807         1.462404
