19
Iteration:   971charge 0 multiplicity 1
 O         0.379188         0.449152         0.700682
 C        -0.813352         0.982821         0.160103
 C        -0.633685         1.564170        -1.271716
 C        -1.956546         2.315493        -0.873563
 C        -3.093012         2.722490        -1.871208
 O        -3.365079         1.228630        -2.094139
 C        -2.926228         1.133280        -0.752302
 C        -1.977402         0.077076         0.010769
 C        -1.278473         2.463758         0.502515
 H         0.417330         0.669966         1.683761
 H         0.296539         2.200072        -1.234453
 H        -0.829049         1.027999        -2.202037
 H        -3.864575         3.212357        -1.334232
 H        -2.645860         3.284103        -2.649207
 H        -3.684582         1.404432         0.042505
 H        -2.420255        -0.116692         0.994326
 H        -1.598361        -0.770304        -0.587871
 H        -0.494141         3.158803         0.488541
 H        -1.870443         2.563176         1.446645
