19
Iteration:   702
 O         0.354857         0.435199         0.831012
 C        -0.658791         1.044793         0.125580
 C        -0.591872         1.584184        -1.275156
 C        -2.063608         2.287810        -0.824912
 C        -3.047182         2.719922        -1.902506
 O        -3.486155         1.374956        -2.139212
 C        -2.927637         1.055263        -0.701815
 C        -1.869047         0.041438        -0.095663
 C        -1.379236         2.409457         0.565779
 H         0.962340         1.001723         1.288404
 H         0.014489         2.419808        -1.475645
 H        -0.618984         0.811460        -2.044503
 H        -3.899807         3.368001        -1.621433
 H        -2.547503         3.015499        -2.848645
 H        -3.740229         1.158914         0.109759
 H        -2.208317        -0.474391         0.854837
 H        -1.598692        -0.821573        -0.788478
 H        -0.558537         3.145675         0.516014
 H        -1.874094         2.292474         1.462692
