19
Iteration:  4303
 O         0.304686         0.515372         0.889090
 C        -0.706389         1.014473         0.139164
 C        -0.644156         1.544766        -1.348920
 C        -1.970785         2.330505        -0.883548
 C        -3.102237         2.743734        -1.866919
 O        -3.299858         1.289413        -2.128692
 C        -2.882571         1.095779        -0.645689
 C        -2.018745        -0.055895        -0.140128
 C        -1.346057         2.439081         0.582765
 H         1.040617         1.090329         0.817917
 H         0.183287         2.232445        -1.518531
 H        -0.853467         0.757157        -2.055681
 H        -4.016221         3.346499        -1.485323
 H        -2.713564         3.268461        -2.768958
 H        -3.822580         1.340409        -0.137328
 H        -2.290306        -0.524811         0.876566
 H        -1.698185        -0.858792        -0.884137
 H        -0.550385         3.139202         0.733564
 H        -1.917717         2.574466         1.436441
