19
Iteration:  3275charge 0 multiplicity 1
 O         0.388330         0.588598         0.811505
 C        -0.690075         1.036147         0.126321
 C        -0.625467         1.498246        -1.289516
 C        -2.007170         2.150832        -0.904277
 C        -2.840546         2.829055        -1.885858
 O        -3.535372         1.393127        -2.081923
 C        -3.000805         1.008169        -0.676393
 C        -1.983159         0.016739        -0.046089
 C        -1.410584         2.317378         0.520771
 H         1.101804         1.242758         0.911428
 H         0.224314         2.318764        -1.375331
 H        -0.394621         0.762500        -2.110332
 H        -3.486571         3.513585        -1.537968
 H        -2.395485         2.923385        -2.878319
 H        -3.792675         1.392144         0.055184
 H        -2.336145        -0.475329         0.898504
 H        -1.678689        -0.708349        -0.726633
 H        -0.682704         3.168581         0.749570
 H        -2.135173         2.467730         1.419472
