19
Iteration:   742
 O         0.312952         0.479276         0.755551
 C        -0.778737         1.028234         0.060193
 C        -0.599993         1.644995        -1.294974
 C        -1.941484         2.404410        -0.873625
 C        -3.072510         2.621878        -1.879993
 O        -3.392857         1.269621        -2.004207
 C        -2.808765         1.146681        -0.632684
 C        -1.974488        -0.009806        -0.182695
 C        -1.338383         2.403003         0.558457
 H         0.061649         0.582582         1.750119
 H         0.350233         2.385457        -1.379346
 H        -0.559846         0.805418        -2.107134
 H        -3.983213         3.233837        -1.551159
 H        -2.593657         3.128566        -2.729461
 H        -3.646308         1.237858         0.113223
 H        -2.346076        -0.508029         0.767515
 H        -1.823770        -0.832800        -0.873164
 H        -0.392386         3.112242         0.754375
 H        -2.225993         2.594597         1.390943
