19
Iteration:  1695
 O         0.350168         0.456479         0.821980
 C        -0.708156         1.020539         0.104778
 C        -0.534572         1.619951        -1.303848
 C        -1.956306         2.273396        -0.896964
 C        -2.928015         2.587417        -2.056563
 O        -3.547501         1.293430        -1.890750
 C        -2.961867         1.181734        -0.607258
 C        -1.998239         0.110012        -0.149759
 C        -1.339841         2.497362         0.547391
 H         0.310219        -0.463398         1.043425
 H         0.169573         2.426047        -1.287171
 H        -0.479254         0.960499        -2.125110
 H        -3.654442         3.396081        -1.861670
 H        -2.507151         2.748000        -3.067117
 H        -3.669555         1.318775         0.136404
 H        -2.353045        -0.523798         0.594819
 H        -1.747717        -0.613505        -0.948483
 H        -0.523894         3.275732         0.747132
 H        -1.881160         2.591305         1.441293
