19
Iteration:  3632charge 0 multiplicity 1
 O         0.406509         0.528367         0.765007
 C        -0.799649         0.929344         0.128121
 C        -0.659532         1.539189        -1.322012
 C        -1.969245         2.265052        -0.917367
 C        -2.860435         2.672284        -2.046768
 O        -3.484066         1.318096        -1.988832
 C        -2.907230         1.167276        -0.606196
 C        -2.001269         0.076731         0.093472
 C        -1.373258         2.380735         0.490998
 H         0.695343         1.411261         1.086055
 H         0.190645         2.298730        -1.402716
 H        -0.740027         0.849267        -2.185552
 H        -3.588424         3.581580        -1.875381
 H        -2.294909         2.704678        -2.986894
 H        -3.624942         1.542757         0.075618
 H        -2.529667        -0.258524         1.028269
 H        -2.144555        -0.760391        -0.646537
 H        -0.419980         2.978183         0.478421
 H        -2.069741         2.331362         1.389175
