19
Iteration:  1158charge 0 multiplicity 1
 O         0.409103         0.518168         0.650756
 C        -0.796603         0.991804         0.160518
 C        -0.665669         1.655485        -1.222452
 C        -1.923973         2.388169        -0.869369
 C        -2.919671         2.633231        -2.033965
 O        -3.413084         1.296352        -2.002383
 C        -2.913590         1.097052        -0.632371
 C        -2.022974         0.009943        -0.058709
 C        -1.380457         2.396658         0.592221
 H         0.165054         0.005427         1.517443
 H         0.166143         2.378283        -1.325777
 H        -0.585464         0.903721        -2.069165
 H        -3.817837         3.269123        -1.800535
 H        -2.488651         2.974764        -2.976014
 H        -3.605446         1.530208        -0.019126
 H        -2.505352        -0.338376         0.818688
 H        -1.699259        -0.734335        -0.818681
 H        -0.592878         3.176480         0.836530
 H        -2.107032         2.331817         1.447924
