19
Iteration:  2843charge 0 multiplicity 1
 O         0.334266         0.421424         0.648850
 C        -0.761720         1.051536         0.176159
 C        -0.572308         1.559118        -1.239167
 C        -1.949052         2.339828        -0.890801
 C        -3.008087         2.606023        -2.050971
 O        -3.461600         1.248134        -1.982063
 C        -2.911306         1.164175        -0.579929
 C        -1.957605         0.112868        -0.074981
 C        -1.330923         2.511805         0.570272
 H         0.106450         0.066040         1.546236
 H         0.275286         2.322627        -1.176661
 H        -0.684315         0.919238        -2.202914
 H        -3.729872         3.396252        -1.613868
 H        -2.588435         2.883241        -3.012744
 H        -3.805199         1.510998         0.074586
 H        -2.326757        -0.370649         0.788882
 H        -1.646542        -0.594750        -0.807545
 H        -0.439077         3.046885         0.453900
 H        -1.846376         2.556617         1.570496
