19
Iteration:  4617charge 0 multiplicity 1
 O         0.285589         0.373174         0.810382
 C        -0.779656         1.023511         0.228500
 C        -0.619940         1.701146        -1.279063
 C        -1.952904         2.357691        -0.925124
 C        -3.094486         2.696036        -1.961909
 O        -3.319911         1.210795        -2.024643
 C        -2.883393         1.115604        -0.671561
 C        -1.937936         0.049583        -0.153653
 C        -1.405857         2.417065         0.580991
 H         1.125663         0.935814         0.823402
 H         0.156110         2.491138        -1.254980
 H        -0.365478         1.016647        -2.127567
 H        -4.011388         3.269867        -1.576203
 H        -2.662210         3.177112        -2.833018
 H        -3.646874         1.477260         0.017772
 H        -2.252622        -0.571147         0.658933
 H        -1.429710        -0.516619        -0.891902
 H        -0.664500         3.195247         0.759023
 H        -2.227590         2.437654         1.257808
