19
Iteration:   875
 O         0.309147         0.455081         0.854773
 C        -0.701154         1.063301         0.131502
 C        -0.623976         1.580858        -1.291767
 C        -1.941553         2.233482        -0.849352
 C        -2.970398         2.725728        -1.934737
 O        -3.484381         1.339963        -2.020355
 C        -2.928802         1.071776        -0.676131
 C        -1.920715        -0.007936        -0.123170
 C        -1.418787         2.481664         0.508173
 H         1.186906         0.455061         0.322298
 H         0.220494         2.233804        -1.551361
 H        -0.583362         0.822913        -2.126530
 H        -3.828977         3.354707        -1.418000
 H        -2.715141         3.153820        -2.912097
 H        -3.523735         1.281910         0.146451
 H        -2.245701        -0.244678         0.881546
 H        -1.533303        -0.809469        -0.688956
 H        -0.660764         3.308850         0.659201
 H        -2.069515         2.528971         1.387460
