19
Iteration:   497
 O         0.325348         0.439473         0.808698
 C        -0.769357         1.007789         0.139796
 C        -0.619601         1.738225        -1.238602
 C        -2.001041         2.370461        -0.827669
 C        -3.056296         2.654903        -1.832293
 O        -3.285226         1.277801        -2.093224
 C        -2.951132         1.065065        -0.693689
 C        -1.972865         0.011121        -0.275403
 C        -1.364620         2.433045         0.639557
 H         1.175391         0.666800         0.344249
 H         0.232678         2.464280        -1.151471
 H        -0.609479         1.002431        -2.096353
 H        -3.817901         3.072832        -1.224877
 H        -2.800815         3.215071        -2.793627
 H        -3.886128         1.004502        -0.086509
 H        -2.438858        -0.437462         0.643174
 H        -1.630033        -0.832039        -0.909390
 H        -0.476698         3.128294         0.730207
 H        -2.184645         2.465884         1.378836
