19
Iteration:   554
 O         0.402397         0.543932         0.723461
 C        -0.759324         0.990158         0.133411
 C        -0.583721         1.707489        -1.268490
 C        -1.987164         2.256120        -0.847908
 C        -2.943109         2.740411        -1.894286
 O        -3.459463         1.314254        -2.053826
 C        -2.885086         1.093969        -0.696691
 C        -1.990706        -0.079049        -0.175324
 C        -1.460220         2.320514         0.634991
 H         0.620300         1.069558         1.480041
 H         0.240063         2.436588        -1.180519
 H        -0.477037         1.190020        -2.251724
 H        -3.676334         3.394840        -1.503778
 H        -2.517325         3.139805        -2.773697
 H        -3.640676         1.304113         0.074989
 H        -2.414343        -0.595584         0.650277
 H        -1.606970        -0.808868        -0.892162
 H        -0.808259         3.091824         0.727103
 H        -2.109641         2.282437         1.541078
