19
Iteration:  2916charge 0 multiplicity 1
 O         0.545275         0.575614         0.744267
 C        -0.758465         0.913964         0.209843
 C        -0.674531         1.494406        -1.313992
 C        -1.915143         2.226979        -0.830061
 C        -2.943685         2.734641        -1.968518
 O        -3.485718         1.407394        -2.031128
 C        -2.949935         1.091288        -0.700844
 C        -2.032631        -0.014854        -0.069133
 C        -1.391545         2.454026         0.527300
 H         0.394088         0.597515         1.753841
 H         0.260801         2.033582        -1.407608
 H        -0.847316         0.683261        -2.000285
 H        -3.733710         3.344227        -1.539444
 H        -2.764860         3.132561        -2.997013
 H        -3.719551         1.399752        -0.040783
 H        -2.520764        -0.517111         0.817541
 H        -1.762563        -0.676484        -0.901319
 H        -0.658398         3.309478         0.561575
 H        -2.214629         2.755717         1.305251
