19
Iteration:   264
 O         0.386658         0.411326         0.791679
 C        -0.753119         1.079259         0.143152
 C        -0.716107         1.716633        -1.253516
 C        -2.042831         2.289740        -0.788664
 C        -3.074708         2.727502        -1.834238
 O        -3.271570         1.287464        -2.113261
 C        -2.864592         1.020252        -0.732584
 C        -1.835768         0.059888        -0.262456
 C        -1.462389         2.461599         0.657054
 H         0.147957        -0.499089         1.178383
 H        -0.036428         2.567338        -1.372536
 H        -0.587989         0.898710        -1.970689
 H        -3.994809         3.088954        -1.366882
 H        -2.749581         3.334599        -2.763861
 H        -3.773688         1.173461        -0.135218
 H        -2.320581        -0.503635         0.539100
 H        -1.380745        -0.534759        -1.082263
 H        -0.683550         3.217815         0.674930
 H        -2.073027         2.415666         1.518325
