19
Iteration:  4958charge 0 multiplicity 1
 O         0.347277         0.569582         0.830144
 C        -0.739024         0.947745         0.135639
 C        -0.635583         1.613627        -1.310693
 C        -1.969299         2.248300        -0.869734
 C        -2.896085         2.756292        -1.920933
 O        -3.338486         1.323394        -2.070046
 C        -2.956540         1.044550        -0.647535
 C        -2.008208        -0.031009        -0.155669
 C        -1.464076         2.408036         0.609294
 H         0.966770         1.283059         0.705104
 H         0.275217         2.219419        -1.337592
 H        -0.736780         0.970593        -2.177971
 H        -3.795106         3.204965        -1.596244
 H        -2.634469         3.227277        -2.861852
 H        -3.696169         1.235796         0.151358
 H        -2.442022        -0.570880         0.837334
 H        -1.790018        -0.802573        -0.913064
 H        -0.825509         3.312595         0.649503
 H        -2.048662         2.373587         1.519295
