19
Iteration:  3693
 O         0.212784         0.306495         0.782252
 C        -0.786611         1.058713         0.158129
 C        -0.655558         1.570664        -1.331657
 C        -1.962608         2.307965        -0.884669
 C        -2.986967         2.705864        -1.942098
 O        -3.344327         1.233709        -2.019343
 C        -2.923673         1.054036        -0.639547
 C        -1.958603         0.052097         0.020192
 C        -1.241028         2.700592         0.428348
 H         0.870025         0.957794         1.123938
 H         0.158729         2.257806        -1.475106
 H        -0.821748         0.694604        -2.045749
 H        -3.837660         3.191825        -1.589376
 H        -2.722916         2.974752        -2.994969
 H        -3.886139         1.210390         0.015319
 H        -2.359804        -0.197370         1.051169
 H        -1.627338        -0.842848        -0.569867
 H        -0.385736         3.388985         0.442172
 H        -1.718901         2.907669         1.351123
