19
Iteration:  3927charge 0 multiplicity 1
 O         0.312395         0.367001         0.835770
 C        -0.705045         1.080959         0.175687
 C        -0.644029         1.545143        -1.298957
 C        -1.947710         2.304062        -0.992649
 C        -3.118206         2.646127        -1.953137
 O        -3.432745         1.306726        -2.056325
 C        -2.850989         1.102583        -0.631144
 C        -1.902319         0.022469        -0.004114
 C        -1.309304         2.603043         0.424841
 H         0.152992         0.520633         1.806050
 H         0.242387         2.257802        -1.610409
 H        -0.755258         0.689168        -1.993627
 H        -3.677183         3.131948        -1.220234
 H        -2.943734         3.194678        -2.861802
 H        -3.698750         1.266627        -0.096116
 H        -2.261094        -0.197849         1.074402
 H        -1.631860        -0.792770        -0.825609
 H        -0.434284         3.191278         0.524332
 H        -1.948554         2.896967         1.299826
