19
Iteration:   484
 O         0.350039         0.500212         0.777543
 C        -0.767831         1.008573         0.080540
 C        -0.592575         1.677147        -1.213779
 C        -1.955733         2.284016        -0.793559
 C        -3.010112         2.755705        -1.793487
 O        -3.282610         1.227924        -2.102228
 C        -2.902466         1.093502        -0.716731
 C        -2.014942        -0.005726        -0.179593
 C        -1.515114         2.385067         0.588144
 H         1.096986         0.497545         0.142165
 H         0.189569         2.485584        -1.199245
 H        -0.444011         1.174090        -2.179317
 H        -3.895349         3.153832        -1.422172
 H        -2.918666         3.437566        -2.716832
 H        -3.712684         1.482655        -0.034137
 H        -2.323786        -0.536388         0.804507
 H        -1.806956        -0.729880        -1.029752
 H        -0.727060         3.282603         0.860306
 H        -2.043650         2.311557         1.533151
