19
Iteration:    25charge 0 multiplicity 1
 O         0.491566         0.280454         0.858106
 C        -0.721944         1.007833         0.184243
 C        -0.586847         1.686144        -1.235851
 C        -2.005772         2.250555        -0.891464
 C        -3.140093         2.711712        -1.860034
 O        -3.466795         1.287360        -2.089395
 C        -2.929242         1.107236        -0.707785
 C        -1.877676         0.001672        -0.225394
 C        -1.469922         2.625165         0.507461
 H         0.873151         0.902630         1.637882
 H         0.233802         2.367314        -1.444756
 H        -0.497357         0.927704        -2.066177
 H        -3.861987         3.199252        -1.279449
 H        -2.825722         3.190055        -2.838455
 H        -3.709329         1.271865         0.058559
 H        -2.300665        -0.650602         0.462360
 H        -1.468365        -0.531467        -1.077790
 H        -0.638287         3.442225         0.758413
 H        -2.038729         2.696738         1.453083
