19
Iteration:  1307charge 0 multiplicity 1
 O         0.364354         0.397136         0.691883
 C        -0.708166         0.968195         0.069423
 C        -0.614635         1.739652        -1.213280
 C        -1.991609         2.306626        -0.853512
 C        -3.043801         2.609963        -1.953217
 O        -3.300268         1.193417        -2.002308
 C        -2.895724         1.165346        -0.629178
 C        -2.038811         0.175581        -0.150773
 C        -1.367498         2.446590         0.592996
 H         0.026096         0.158047         1.595287
 H         0.040235         2.618509        -1.239746
 H        -0.331066         1.225606        -2.119253
 H        -3.916254         3.246501        -1.626658
 H        -2.633047         3.087246        -2.851144
 H        -3.769871         1.437495        -0.139983
 H        -2.454605        -0.349331         0.879332
 H        -1.835115        -0.681338        -0.782780
 H        -0.681843         3.217240         0.723090
 H        -2.151123         2.236991         1.393944
