19
Iteration:  2868
 O         0.394103         0.368052         0.896406
 C        -0.675128         1.037946         0.130182
 C        -0.667650         1.596503        -1.445488
 C        -1.943203         2.343135        -0.892516
 C        -3.068955         2.722634        -1.906173
 O        -3.408372         1.256472        -2.031896
 C        -2.919221         1.126413        -0.614766
 C        -1.996596         0.036870        -0.100878
 C        -1.306594         2.490503         0.444594
 H         0.118219         0.508540         1.785455
 H         0.104079         2.340394        -1.475907
 H        -0.807612         0.910944        -2.280645
 H        -3.840409         3.377511        -1.376224
 H        -2.778127         3.155950        -2.883514
 H        -3.736047         1.497122         0.003765
 H        -2.432242        -0.159799         0.983671
 H        -1.749097        -0.895770        -0.757410
 H        -0.390638         3.113760         0.688934
 H        -1.938783         2.499623         1.316418
