19
Iteration:   272
 O         0.396165         0.400052         0.740080
 C        -0.761688         1.087569         0.184310
 C        -0.674298         1.676987        -1.193179
 C        -2.114606         2.263991        -0.792881
 C        -3.075036         2.739786        -1.886880
 O        -3.272614         1.321603        -2.117488
 C        -2.861022         1.035316        -0.780385
 C        -1.798553         0.074424        -0.205879
 C        -1.461994         2.457338         0.628681
 H         0.050428        -0.435066         1.188075
 H        -0.016664         2.472381        -1.221453
 H        -0.763660         1.109638        -2.103063
 H        -3.954658         3.167679        -1.352722
 H        -2.900646         3.341117        -2.715685
 H        -3.749482         1.007888        -0.116576
 H        -2.155886        -0.508983         0.665366
 H        -1.393800        -0.734136        -0.895448
 H        -0.761278         3.256741         0.659423
 H        -1.968746         2.350744         1.699159
