19
Iteration:   707charge 0 multiplicity 1
 O         0.354351         0.408979         0.829142
 C        -0.671787         1.073820         0.144214
 C        -0.611917         1.587404        -1.315221
 C        -2.031835         2.289447        -0.847795
 C        -3.067686         2.766699        -1.905643
 O        -3.480228         1.322662        -2.114266
 C        -2.919825         1.042794        -0.656294
 C        -1.898233         0.029718        -0.120143
 C        -1.329421         2.405526         0.546766
 H         0.826420         1.078541         1.453820
 H         0.053604         2.515606        -1.468135
 H        -0.359080         0.756268        -2.021044
 H        -4.016065         3.353385        -1.635689
 H        -2.501487         3.215834        -2.779286
 H        -3.833110         1.165428        -0.085434
 H        -2.220529        -0.410953         0.789602
 H        -1.551667        -0.703053        -0.805559
 H        -0.557702         3.179510         0.698273
 H        -2.075256         2.387231         1.481426
