19
Iteration:  3141charge 0 multiplicity 1
 O         0.383871         0.609121         0.789346
 C        -0.778947         0.871214         0.157900
 C        -0.766503         1.551170        -1.270990
 C        -1.952994         2.265660        -0.839660
 C        -2.877332         2.738485        -1.909539
 O        -3.328305         1.371953        -2.104898
 C        -2.957059         1.055976        -0.640563
 C        -2.083561         0.013413         0.012891
 C        -1.339855         2.406604         0.509862
 H         1.058126         0.901630         0.209564
 H         0.114138         2.224755        -1.604403
 H        -1.013557         0.882755        -2.197568
 H        -3.720561         3.348930        -1.640902
 H        -2.416255         3.088676        -2.807701
 H        -3.818918         1.285308        -0.104008
 H        -2.450138        -0.311413         0.912480
 H        -1.825792        -0.906208        -0.571613
 H        -0.345066         3.032580         0.489765
 H        -2.009303         2.521486         1.351741
