19
Iteration:  3196charge 0 multiplicity 1
 O         0.298912         0.330126         0.792728
 C        -0.749691         0.990225         0.157575
 C        -0.652891         1.662134        -1.317545
 C        -1.960793         2.319375        -0.920406
 C        -2.963190         2.729831        -2.002421
 O        -3.447598         1.240443        -1.994598
 C        -2.885795         1.148579        -0.678263
 C        -1.969961         0.022954        -0.031181
 C        -1.360914         2.483034         0.547078
 H         1.026762         1.003961         0.881912
 H         0.101993         2.499131        -1.191799
 H        -0.502138         0.990124        -2.238392
 H        -3.818010         3.263748        -1.755542
 H        -2.608922         3.156335        -2.892876
 H        -3.620728         1.479140         0.087900
 H        -2.397841        -0.249857         0.865616
 H        -1.495844        -0.902076        -0.443148
 H        -0.444528         3.258191         0.633879
 H        -1.964225         2.680656         1.443836
