19
Iteration:    26charge 0 multiplicity 1
 O         0.478987         0.282559         0.862507
 C        -0.733388         1.005903         0.181890
 C        -0.583294         1.695276        -1.237354
 C        -2.000164         2.247222        -0.896256
 C        -3.147810         2.701144        -1.863267
 O        -3.464233         1.302974        -2.087157
 C        -2.929017         1.102337        -0.708654
 C        -1.871055        -0.006428        -0.217339
 C        -1.467246         2.620365         0.496203
 H         0.915674         0.898105         1.587547
 H         0.245013         2.383332        -1.435393
 H        -0.471401         0.947796        -2.086128
 H        -3.856643         3.187958        -1.244833
 H        -2.822673         3.171814        -2.839342
 H        -3.688662         1.267377         0.103419
 H        -2.282091        -0.670978         0.485262
 H        -1.455522        -0.518226        -1.083040
 H        -0.634357         3.443162         0.785370
 H        -2.018131         2.716058         1.475508
