19
Iteration:  4800
 O         0.417384         0.520893         0.804842
 C        -0.774636         1.013944         0.189682
 C        -0.608834         1.626535        -1.246588
 C        -1.975977         2.322382        -0.851849
 C        -2.922909         2.669046        -1.985782
 O        -3.409819         1.319225        -2.095734
 C        -2.958643         1.067808        -0.712429
 C        -1.995345        -0.011314        -0.106319
 C        -1.453248         2.377391         0.634722
 H         1.080435         1.248180         0.772357
 H         0.304370         2.151111        -1.255738
 H        -0.790484         1.031002        -2.142132
 H        -3.700116         3.252594        -1.570507
 H        -2.575138         3.111122        -2.915044
 H        -3.648115         1.242192         0.038558
 H        -2.293804        -0.644511         0.741664
 H        -1.644623        -0.638966        -1.006369
 H        -0.824546         3.206907         0.857467
 H        -2.367704         2.400788         1.298985
