19
Iteration:  3365
 O         0.298735         0.289662         0.821029
 C        -0.716586         1.038130         0.181921
 C        -0.642335         1.689492        -1.261833
 C        -1.974512         2.323593        -0.852024
 C        -3.107109         2.697299        -2.015145
 O        -3.388672         1.269164        -2.042482
 C        -2.805044         1.108837        -0.671328
 C        -1.923513         0.050155        -0.077747
 C        -1.411876         2.532486         0.540384
 H         1.173765         0.642703         0.441090
 H         0.239784         2.397239        -1.385384
 H        -0.542450         0.888489        -2.016940
 H        -3.898322         3.291293        -1.718471
 H        -2.644279         3.009078        -3.009502
 H        -3.609741         1.388291         0.145839
 H        -2.436776        -0.474132         0.747085
 H        -1.612281        -0.726416        -0.760275
 H        -0.726633         3.313352         0.786321
 H        -2.149393         2.636572         1.407283
