19
Iteration:  4638charge 0 multiplicity 1
 O         0.240120         0.329354         0.809581
 C        -0.737643         0.985814         0.078764
 C        -0.493213         1.713592        -1.231154
 C        -1.987540         2.351636        -0.855095
 C        -3.072281         2.607208        -1.921289
 O        -3.320153         1.203920        -2.068060
 C        -2.852657         1.113326        -0.625824
 C        -1.925466         0.079734        -0.164778
 C        -1.467277         2.573196         0.593278
 H         1.066569         0.755787         0.891835
 H         0.193478         2.524773        -1.268331
 H        -0.520685         1.208983        -2.215877
 H        -3.908685         3.157540        -1.364746
 H        -2.978164         3.195954        -2.875596
 H        -3.789947         1.274059        -0.079771
 H        -2.335108        -0.303569         0.726630
 H        -1.742187        -0.705502        -0.986599
 H        -0.682819         3.260840         0.689232
 H        -2.201015         2.587732         1.354378
