19
Iteration:  4682
 O         0.402737         0.522188         0.865657
 C        -0.742402         1.021716         0.081198
 C        -0.708929         1.564262        -1.308372
 C        -2.005409         2.247885        -0.752005
 C        -2.936488         2.725322        -1.941611
 O        -3.414714         1.349208        -2.153056
 C        -2.960751         1.082169        -0.697152
 C        -1.884562         0.014680        -0.114521
 C        -1.421632         2.387310         0.654357
 H         0.908423         1.315622         0.861189
 H         0.063150         2.308322        -1.311197
 H        -0.578619         0.800072        -2.071842
 H        -3.860687         3.332622        -1.963316
 H        -2.385784         3.024421        -2.852742
 H        -3.897352         1.142709        -0.085598
 H        -2.218852        -0.435896         0.817604
 H        -1.657895        -0.777380        -0.890232
 H        -0.695276         3.145350         0.859721
 H        -2.177190         2.275569         1.394758
