19
Iteration:  1482charge 0 multiplicity 1
 O         0.523175         0.666773         0.819415
 C        -0.767142         0.944677         0.101409
 C        -0.663829         1.539203        -1.322687
 C        -1.987313         2.239303        -0.837705
 C        -2.909931         2.776793        -1.896567
 O        -3.360018         1.330419        -2.076123
 C        -2.970788         1.132128        -0.688029
 C        -2.108282        -0.063656        -0.077698
 C        -1.402109         2.407511         0.566626
 H         0.561021        -0.250434         0.859132
 H        -0.009516         2.411016        -1.370306
 H        -0.726838         0.829829        -2.175957
 H        -3.870958         3.280943        -1.707882
 H        -2.425164         3.118884        -2.813279
 H        -3.903230         1.385225        -0.103767
 H        -2.498105        -0.447438         0.751599
 H        -1.761568        -0.816563        -0.663948
 H        -0.746175         3.217183         0.930071
 H        -2.121397         2.208933         1.477642
