19
Iteration:   579
 O         0.477431         0.565701         0.755058
 C        -0.777728         0.955794         0.170972
 C        -0.595542         1.561593        -1.275411
 C        -1.991486         2.289977        -0.814250
 C        -3.084465         2.714790        -1.935031
 O        -3.399606         1.348166        -2.068486
 C        -2.908212         1.129204        -0.724566
 C        -1.953223         0.007048        -0.216644
 C        -1.442512         2.374153         0.656226
 H         0.412661         0.571614         1.679944
 H         0.263707         2.266511        -1.289703
 H        -0.534132         1.024530        -2.210696
 H        -3.888543         3.396181        -1.387493
 H        -2.775431         3.137897        -2.882386
 H        -3.749012         1.169838         0.057384
 H        -2.397668        -0.700649         0.550057
 H        -1.525208        -0.729260        -0.936803
 H        -0.517059         2.990590         0.809823
 H        -2.106722         2.458526         1.503485
