19
Iteration:  4178
 O         0.340174         0.369891         0.900508
 C        -0.719238         1.128242         0.135679
 C        -0.678798         1.598794        -1.319441
 C        -1.984746         2.222882        -0.873453
 C        -3.084015         2.751405        -1.820057
 O        -3.338816         1.294105        -2.189893
 C        -2.926619         1.061852        -0.770813
 C        -1.929842         0.054636         0.058459
 C        -1.339935         2.493732         0.513023
 H         1.215259         0.420974         0.494958
 H         0.110246         2.360585        -1.393254
 H        -0.699570         0.913223        -2.181140
 H        -3.899266         3.119126        -1.029421
 H        -2.832769         3.111370        -2.818570
 H        -3.822535         1.521506        -0.274684
 H        -2.399941        -0.462536         0.865980
 H        -1.506988        -0.683375        -0.630016
 H        -0.644316         3.354349         0.457720
 H        -2.195890         2.572460         1.280381
