19
Iteration:  3073charge 0 multiplicity 1
 O         0.254141         0.370389         0.814856
 C        -0.762885         0.965170         0.089091
 C        -0.589194         1.657959        -1.236347
 C        -1.934396         2.302847        -0.864654
 C        -2.984813         2.680049        -2.060465
 O        -3.473805         1.313198        -1.912671
 C        -2.849412         1.120639        -0.599485
 C        -1.949095         0.017247        -0.173014
 C        -1.339572         2.499378         0.519009
 H         0.784614         1.176177         1.087376
 H         0.308481         2.344799        -1.223185
 H        -0.757010         1.063340        -2.195113
 H        -3.785851         3.373778        -1.830643
 H        -2.562321         2.897332        -3.014626
 H        -3.573441         1.297802         0.165600
 H        -2.431010        -0.451286         0.741790
 H        -1.620599        -0.770001        -0.836541
 H        -0.398593         3.100205         0.509141
 H        -2.156298         2.697887         1.297524
