19
Iteration:  1958
 O         0.392655         0.532817         0.683244
 C        -0.726793         1.052011         0.222379
 C        -0.705569         1.409079        -1.320666
 C        -1.941153         2.281015        -0.888469
 C        -2.816164         2.677593        -2.033209
 O        -3.485657         1.288990        -1.984766
 C        -3.017019         1.177708        -0.551008
 C        -2.056432         0.083429         0.007079
 C        -1.342794         2.458727         0.554280
 H         1.088405         0.675477         0.067819
 H         0.133651         2.164640        -1.418571
 H        -0.774814         0.661720        -2.133741
 H        -3.449902         3.527346        -1.830697
 H        -2.328265         2.613888        -3.046533
 H        -3.830042         1.393348         0.054615
 H        -2.453974        -0.294956         0.934198
 H        -1.774679        -0.613778        -0.789473
 H        -0.528383         3.183226         0.839659
 H        -1.942372         2.461119         1.489088
