19
Iteration:  4936
 O         0.397262         0.561060         0.822684
 C        -0.705706         0.973837         0.202849
 C        -0.713203         1.541618        -1.244627
 C        -1.999441         2.353820        -0.844182
 C        -2.898687         2.714747        -1.950369
 O        -3.467893         1.364808        -2.091073
 C        -2.959108         1.049708        -0.790606
 C        -1.893904        -0.014773        -0.105107
 C        -1.451075         2.347129         0.634326
 H         0.988590         1.370628         0.733418
 H         0.062537         2.323591        -1.333994
 H        -0.655310         0.821783        -2.048282
 H        -3.631616         3.485193        -1.895245
 H        -2.423692         2.889615        -2.919976
 H        -3.737375         1.322342        -0.042032
 H        -2.442621        -0.772006         0.689946
 H        -1.507468        -0.700081        -0.877809
 H        -0.625137         3.094420         0.845810
 H        -2.062254         2.351915         1.538446
