19
Iteration:  1096
 O         0.392865         0.508871         0.781669
 C        -0.796534         0.964975         0.137601
 C        -0.685732         1.541808        -1.302795
 C        -2.011831         2.281540        -0.795041
 C        -3.031745         2.786363        -1.889227
 O        -3.388458         1.272295        -2.110433
 C        -2.909365         1.094301        -0.747277
 C        -1.951978         0.032891        -0.072283
 C        -1.272622         2.491965         0.533327
 H         0.285935         0.541974         1.806613
 H         0.167567         2.172730        -1.454250
 H        -0.702243         0.850562        -2.151407
 H        -3.971620         3.235423        -1.599799
 H        -2.691968         3.371964        -2.754257
 H        -3.683639         1.220930         0.137651
 H        -2.354622        -0.444717         0.898760
 H        -1.790201        -0.916809        -0.595381
 H        -0.295930         3.032181         0.373357
 H        -1.727800         2.706070         1.439894
