19
Iteration:  1890charge 0 multiplicity 1
 O         0.208675         0.421574         0.868512
 C        -0.781194         1.043998         0.085604
 C        -0.666309         1.500610        -1.393918
 C        -1.932206         2.303384        -0.897233
 C        -3.093550         2.704767        -1.913312
 O        -3.416987         1.272527        -1.978395
 C        -2.850432         1.139924        -0.658323
 C        -1.936915         0.076659        -0.023229
 C        -1.171472         2.476077         0.447470
 H         0.900020         0.916652         1.342384
 H         0.198028         2.209252        -1.615156
 H        -0.838352         0.673160        -2.121764
 H        -3.769118         3.268334        -1.289863
 H        -2.866316         3.141199        -2.868085
 H        -3.594506         1.345921         0.000237
 H        -2.406545        -0.199825         0.890677
 H        -1.653853        -0.700422        -0.775837
 H        -0.299860         3.245135         0.415496
 H        -1.771085         2.638348         1.237442
