19
Iteration:  3987
 O         0.474302         0.522475         0.699344
 C        -0.785361         0.976523         0.211119
 C        -0.724272         1.517005        -1.247461
 C        -1.986944         2.300061        -0.888308
 C        -2.876293         2.662940        -2.042798
 O        -3.447970         1.283569        -1.989653
 C        -2.893405         1.157150        -0.706306
 C        -2.039978         0.041049         0.008029
 C        -1.413091         2.468009         0.616208
 H         1.112689         1.240321         0.663447
 H         0.136639         2.083318        -1.482346
 H        -0.831690         0.840049        -2.114625
 H        -3.761292         3.484172        -2.005810
 H        -2.234138         2.778153        -2.972262
 H        -3.859387         1.333797        -0.018093
 H        -2.401486        -0.501208         0.822318
 H        -1.831394        -0.753588        -0.591439
 H        -0.545196         3.217888         0.777458
 H        -2.187835         2.499805         1.385212
