19
Iteration:  3499charge 0 multiplicity 1
 O         0.431019         0.513359         0.692436
 C        -0.756795         1.064111         0.121049
 C        -0.750668         1.557557        -1.281140
 C        -1.985808         2.278403        -0.831285
 C        -2.865622         2.719496        -2.070325
 O        -3.371335         1.268439        -2.030579
 C        -3.006786         1.079375        -0.599013
 C        -1.991489         0.121678        -0.001359
 C        -1.351556         2.419777         0.603523
 H         0.283255        -0.202774         1.366161
 H        -0.100080         2.392495        -1.530029
 H        -0.674838         0.814778        -2.127062
 H        -3.619545         3.447020        -1.973374
 H        -2.438037         2.877944        -3.067356
 H        -3.905629         1.282476         0.100306
 H        -2.285170        -0.227089         0.947934
 H        -1.769672        -0.857634        -0.572817
 H        -0.466128         3.168249         0.765921
 H        -2.083197         2.510079         1.421107
