19
Iteration:  4369
 O         0.351257         0.383987         0.762065
 C        -0.796991         1.030329         0.158937
 C        -0.614221         1.742700        -1.243344
 C        -1.943769         2.339435        -0.905029
 C        -2.980811         2.708108        -1.995985
 O        -3.387016         1.185628        -2.008756
 C        -2.865965         1.169575        -0.716935
 C        -1.963813         0.085917        -0.116198
 C        -1.468167         2.351764         0.658501
 H         1.094212         1.078790         0.800440
 H         0.199714         2.434718        -1.155791
 H        -0.668217         1.002125        -2.019045
 H        -3.981631         3.229958        -1.877976
 H        -2.556495         2.806407        -3.019925
 H        -3.440693         1.440167         0.150249
 H        -2.396452        -0.402042         0.875985
 H        -1.843097        -0.758653        -0.844286
 H        -0.620349         3.012993         0.818022
 H        -2.224584         2.495697         1.360979
