19
Iteration:   109charge 0 multiplicity 1
 O         0.414590         0.575791         0.594499
 C        -0.786795         1.053947         0.199784
 C        -0.632819         1.714185        -1.190854
 C        -2.044412         2.245118        -0.741850
 C        -2.938381         2.663945        -1.837421
 O        -3.374644         1.323560        -2.174436
 C        -2.941844         0.963654        -0.763815
 C        -1.919011        -0.014924        -0.134297
 C        -1.420479         2.470204         0.704461
 H         0.313163        -0.183679         1.129091
 H         0.181534         2.429659        -1.276061
 H        -0.641957         0.952000        -1.940171
 H        -3.754749         3.351046        -1.466348
 H        -2.466007         3.188417        -2.674872
 H        -3.863859         0.890836        -0.145767
 H        -2.431515        -0.512788         0.702839
 H        -1.509671        -0.830361        -0.781438
 H        -0.724629         3.200665         0.672649
 H        -2.145743         2.572902         1.438955
