19
Iteration:  1276
 O         0.396076         0.505207         0.675978
 C        -0.756275         0.988658         0.167025
 C        -0.756672         1.618548        -1.248555
 C        -2.029649         2.259180        -0.828062
 C        -2.930436         2.693906        -2.002562
 O        -3.391864         1.381741        -2.070852
 C        -2.850648         1.042055        -0.683131
 C        -1.938504         0.010594        -0.060104
 C        -1.390263         2.422738         0.640438
 H         0.386026         0.451018         1.649822
 H         0.008568         2.356896        -1.428939
 H        -0.846131         0.931906        -2.076450
 H        -3.760850         3.436566        -1.888770
 H        -2.361887         2.998274        -2.895602
 H        -3.738828         1.213368        -0.095138
 H        -2.465497        -0.422817         0.946116
 H        -1.428204        -0.687732        -0.786827
 H        -0.649376         3.176686         0.728979
 H        -1.992941         2.521714         1.558592
