19
Iteration:  1893
 O         0.186054         0.411273         0.855407
 C        -0.760720         1.059532         0.075960
 C        -0.652285         1.495246        -1.402453
 C        -1.957500         2.287183        -0.913721
 C        -3.096238         2.682617        -1.889970
 O        -3.412462         1.266937        -2.002314
 C        -2.844593         1.159532        -0.637049
 C        -1.910358         0.113580        -0.020100
 C        -1.158324         2.468797         0.474547
 H         0.866999         0.886731         1.419450
 H         0.163144         2.158653        -1.608030
 H        -0.821937         0.759113        -2.170808
 H        -3.801452         3.325180        -1.309761
 H        -2.882722         3.061524        -2.925694
 H        -3.700910         1.320542         0.046630
 H        -2.443852        -0.116819         0.851251
 H        -1.708319        -0.655030        -0.728235
 H        -0.254351         3.198367         0.343422
 H        -1.851281         2.600702         1.406503
