19
Iteration:  3364
 O         0.296551         0.277793         0.826069
 C        -0.709162         1.031423         0.177511
 C        -0.644275         1.695822        -1.265627
 C        -1.987204         2.338022        -0.845906
 C        -3.100296         2.695383        -2.014033
 O        -3.388140         1.261423        -2.049740
 C        -2.805956         1.107372        -0.669627
 C        -1.912608         0.050918        -0.075145
 C        -1.414993         2.540019         0.536588
 H         1.149594         0.619815         0.439642
 H         0.269832         2.400648        -1.396572
 H        -0.559033         0.893516        -2.024276
 H        -3.937435         3.318626        -1.735483
 H        -2.673339         3.039846        -3.020578
 H        -3.599207         1.411953         0.169759
 H        -2.412058        -0.487248         0.760672
 H        -1.627376        -0.703377        -0.722566
 H        -0.721097         3.316487         0.777720
 H        -2.147195         2.641445         1.429512
