19
Iteration:   869charge 0 multiplicity 1
 O         0.284840         0.450025         0.854107
 C        -0.740120         1.066003         0.130122
 C        -0.605327         1.585977        -1.367199
 C        -1.965856         2.260770        -0.825346
 C        -2.983581         2.765214        -1.927008
 O        -3.482303         1.310111        -2.029855
 C        -2.893260         1.047563        -0.708228
 C        -1.915673        -0.011692        -0.058408
 C        -1.378568         2.511390         0.532032
 H         1.107782         0.338893         0.333310
 H         0.309990         2.198414        -1.500822
 H        -0.504234         0.843168        -2.161127
 H        -3.721927         3.313425        -1.441778
 H        -2.787877         3.244829        -2.907755
 H        -3.608960         1.271251         0.219210
 H        -2.221664        -0.529504         0.897817
 H        -1.492953        -0.861089        -0.738270
 H        -0.689284         3.380750         0.629768
 H        -2.065183         2.530047         1.394615
