19
Iteration:  4747
 O         0.235254         0.305392         0.905356
 C        -0.707101         1.082402         0.167640
 C        -0.688100         1.729983        -1.339777
 C        -2.035067         2.265499        -0.883246
 C        -3.037152         2.650767        -1.921889
 O        -3.375821         1.259949        -2.091356
 C        -2.823513         1.079738        -0.769811
 C        -1.845914         0.106794        -0.139889
 C        -1.368905         2.476954         0.608078
 H         1.090964         0.789629         1.023166
 H        -0.145117         2.645684        -1.381369
 H        -0.554533         1.044974        -2.172461
 H        -3.818515         3.251202        -1.425357
 H        -2.658877         3.192664        -2.804358
 H        -3.597292         1.260335         0.072134
 H        -2.139918        -0.356496         0.847799
 H        -1.658093        -0.834919        -0.777368
 H        -0.698178         3.282604         0.791006
 H        -2.119444         2.557620         1.368214
