19
Iteration:  2325
 O         0.479007         0.593167         0.676474
 C        -0.758524         0.928578         0.122459
 C        -0.714438         1.527729        -1.325586
 C        -1.931446         2.327663        -0.890653
 C        -2.878411         2.688125        -2.107484
 O        -3.520571         1.400684        -1.951907
 C        -2.922171         1.153498        -0.593727
 C        -2.051360        -0.019830         0.071511
 C        -1.320861         2.387504         0.551417
 H         0.229512         0.090684         1.529895
 H         0.196078         2.163941        -1.306941
 H        -0.743371         1.002427        -2.273087
 H        -3.703647         3.463027        -1.870402
 H        -2.576192         2.532337        -3.136304
 H        -3.648792         1.448365         0.142534
 H        -2.500192        -0.338610         1.029848
 H        -1.844247        -1.007590        -0.516984
 H        -0.421302         3.077208         0.703787
 H        -2.006859         2.352576         1.385683
