19
Iteration:  4011
 O         0.357205         0.471452         0.765969
 C        -0.727600         1.072232         0.155151
 C        -0.597757         1.587450        -1.289179
 C        -2.028727         2.196556        -0.870537
 C        -2.900228         2.651767        -2.017115
 O        -3.452630         1.305356        -2.064746
 C        -3.007410         1.112403        -0.597196
 C        -1.936348         0.047403         0.029154
 C        -1.395647         2.501709         0.560589
 H         1.078675         0.452560         0.139943
 H         0.172399         2.350734        -1.411498
 H        -0.550588         0.948962        -2.133115
 H        -3.686751         3.511521        -1.708701
 H        -2.346104         2.929010        -2.992427
 H        -3.972396         1.376266         0.041734
 H        -2.140117        -0.442464         0.974214
 H        -1.674945        -0.822936        -0.561461
 H        -0.695484         3.349445         0.627968
 H        -2.152055         2.476219         1.378728
