19
Iteration:  3079charge 0 multiplicity 1
 O         0.211395         0.345131         0.820779
 C        -0.784797         0.915269         0.054131
 C        -0.536914         1.706296        -1.268369
 C        -1.911297         2.328468        -0.898883
 C        -2.990359         2.682725        -2.019797
 O        -3.433349         1.280972        -1.892020
 C        -2.883119         1.098519        -0.649307
 C        -1.953536         0.026590        -0.109387
 C        -1.368651         2.542680         0.525373
 H         0.934468         0.913418         0.979802
 H         0.224291         2.446811        -1.220793
 H        -0.703993         1.159377        -2.156621
 H        -3.807623         3.463767        -1.909086
 H        -2.706350         2.903364        -3.121366
 H        -3.543800         1.348637         0.314982
 H        -2.237596        -0.518999         0.827775
 H        -1.614409        -0.713036        -0.874171
 H        -0.547210         3.261641         0.483441
 H        -1.923399         2.695237         1.436633
