19
Iteration:  1267charge 0 multiplicity 1
 O         0.442538         0.569119         0.684332
 C        -0.768203         1.053014         0.196162
 C        -0.757137         1.515098        -1.212077
 C        -2.024106         2.265466        -0.792290
 C        -2.910318         2.749317        -1.963146
 O        -3.422468         1.389122        -2.104699
 C        -2.896395         1.036241        -0.712762
 C        -1.920152        -0.021884        -0.112919
 C        -1.387540         2.419627         0.580013
 H         0.378793         0.419042         1.663689
 H         0.044157         2.238989        -1.236255
 H        -0.825907         0.832145        -2.072094
 H        -3.736603         3.454432        -1.764680
 H        -2.339725         2.918347        -2.869115
 H        -3.683504         1.111791         0.127380
 H        -2.427544        -0.380639         0.777810
 H        -1.773148        -1.024004        -0.633348
 H        -0.521828         3.124311         0.750766
 H        -2.079657         2.373858         1.396921
