19
Iteration:  4187charge 0 multiplicity 1
 O         0.346198         0.461553         0.896521
 C        -0.768192         1.000989         0.155211
 C        -0.625487         1.569644        -1.350384
 C        -1.964301         2.232304        -0.937060
 C        -3.030502         2.747408        -1.822966
 O        -3.381379         1.300832        -2.181551
 C        -2.891476         1.080104        -0.748640
 C        -1.930817         0.091217         0.039239
 C        -1.410811         2.424059         0.539236
 H         1.176959         0.550966         0.427431
 H         0.088731         2.402103        -1.514988
 H        -0.813620         0.849682        -2.111572
 H        -3.877149         3.182884        -1.313556
 H        -2.853339         3.505310        -2.636208
 H        -3.691454         1.270553        -0.088395
 H        -2.242650        -0.299845         0.995088
 H        -1.660700        -0.671671        -0.612824
 H        -0.672148         3.254458         0.609939
 H        -2.046198         2.597352         1.528964
