19
Iteration:  2293charge 0 multiplicity 1
 O         0.380588         0.404527         0.638710
 C        -0.691787         1.094810         0.132781
 C        -0.653607         1.498799        -1.298300
 C        -1.959071         2.281844        -0.836726
 C        -2.917652         2.661182        -1.981213
 O        -3.441092         1.227680        -2.016263
 C        -3.007759         1.150074        -0.612504
 C        -2.010360         0.170993         0.026726
 C        -1.300859         2.526007         0.527192
 H         0.043840        -0.126534         1.367107
 H         0.131689         2.231845        -1.373252
 H        -0.606417         0.860770        -2.122068
 H        -3.664221         3.422981        -1.582326
 H        -2.901351         2.965047        -2.967895
 H        -3.857651         1.523969         0.073802
 H        -2.247522        -0.203736         1.006680
 H        -1.697964        -0.669605        -0.681267
 H        -0.472833         3.329126         0.580520
 H        -1.876312         2.538464         1.458359
