19
Iteration:   156
 O         0.327585         0.424463         0.782242
 C        -0.715229         1.039745         0.080367
 C        -0.704496         1.792819        -1.244570
 C        -1.978097         2.341797        -0.768367
 C        -3.129625         2.642800        -1.932402
 O        -3.267071         1.247772        -2.137290
 C        -2.868724         1.132054        -0.725206
 C        -1.981600         0.030485        -0.211468
 C        -1.333594         2.295376         0.767859
 H         0.969325         1.148393         0.898529
 H        -0.047052         2.712747        -1.278528
 H        -0.707667         1.249831        -2.270697
 H        -4.022905         3.063839        -1.486813
 H        -2.904122         3.248720        -2.901552
 H        -3.682005         1.239129        -0.008547
 H        -2.301177        -0.432583         0.704541
 H        -1.819506        -0.776864        -0.916565
 H        -0.487280         3.038070         1.026872
 H        -2.038361         2.040158         1.536816
