19
Iteration:   723charge 0 multiplicity 1
 O         0.335398         0.412818         0.828538
 C        -0.770501         0.987905         0.109392
 C        -0.623285         1.685825        -1.345534
 C        -1.958013         2.256317        -0.917851
 C        -3.032243         2.759775        -1.873775
 O        -3.377234         1.228735        -2.008271
 C        -2.915487         1.106611        -0.696125
 C        -1.939320         0.054302        -0.147110
 C        -1.342053         2.464791         0.557878
 H         0.447671         0.886258         1.662388
 H         0.209815         2.390601        -1.290500
 H        -0.760564         1.127524        -2.291707
 H        -3.766583         3.205197        -1.268691
 H        -2.937315         3.188749        -2.842297
 H        -3.593533         1.289711         0.182006
 H        -2.311703        -0.592723         0.709462
 H        -1.655966        -0.708293        -0.939972
 H        -0.521520         3.257353         0.610248
 H        -2.081000         2.492068         1.318883
