19
Iteration:  1449charge 0 multiplicity 1
 O         0.335901         0.418121         0.687682
 C        -0.780541         1.073413         0.133388
 C        -0.680536         1.690031        -1.243442
 C        -1.997187         2.376553        -0.829716
 C        -3.008620         2.679400        -2.024914
 O        -3.342289         1.243065        -2.036441
 C        -2.876963         1.104279        -0.682667
 C        -1.939279         0.001844        -0.061867
 C        -1.333098         2.472883         0.665885
 H         0.039265        -0.320196         1.286549
 H         0.035199         2.518747        -1.357988
 H        -0.572061         1.133909        -2.202602
 H        -3.937832         3.263826        -1.867747
 H        -2.450976         3.055743        -2.902366
 H        -3.816170         1.246520         0.018182
 H        -2.290127        -0.428531         0.781364
 H        -1.504103        -0.714558        -0.663336
 H        -0.538047         3.175501         0.689253
 H        -2.077644         2.306270         1.536680
