19
Iteration:  4705
 O         0.413491         0.614584         0.789187
 C        -0.722166         0.978655         0.180541
 C        -0.712374         1.615965        -1.268397
 C        -1.909793         2.214571        -0.831026
 C        -2.887082         2.761540        -1.948346
 O        -3.382453         1.321349        -2.092843
 C        -2.891364         1.083453        -0.668179
 C        -2.055805        -0.052386        -0.148721
 C        -1.489748         2.306253         0.597934
 H         0.762858         1.569557         0.946830
 H         0.125385         2.384593        -1.271133
 H        -0.703655         0.884252        -2.096699
 H        -3.817620         3.346385        -1.605751
 H        -2.575168         3.283621        -2.905608
 H        -3.735326         1.121645         0.075445
 H        -2.667350        -0.494939         0.699289
 H        -1.661325        -0.849106        -0.769525
 H        -0.608057         3.019671         0.659029
 H        -2.205379         2.453475         1.380909
