19
Iteration:  3941charge 0 multiplicity 1
 O         0.311377         0.372631         0.881615
 C        -0.721148         1.053469         0.095347
 C        -0.646590         1.586842        -1.425615
 C        -1.926761         2.298452        -0.873085
 C        -3.040623         2.723390        -1.896287
 O        -3.420030         1.197510        -2.068148
 C        -2.898172         1.077800        -0.657610
 C        -1.964136         0.098727        -0.004385
 C        -1.275218         2.573044         0.470844
 H         0.347528         0.705548         1.762805
 H         0.171799         2.268116        -1.642401
 H        -0.759758         0.861134        -2.278433
 H        -4.003086         3.201305        -1.542162
 H        -2.768010         3.108823        -2.885941
 H        -3.666462         1.443555         0.118247
 H        -2.390590        -0.293185         0.890254
 H        -1.633347        -0.819668        -0.443766
 H        -0.550996         3.426482         0.377464
 H        -1.947156         2.621600         1.335566
