19
Iteration:    95
 O         0.548304         0.648241         0.757429
 C        -0.791749         1.010174         0.183725
 C        -0.713871         1.611456        -1.162046
 C        -2.053457         2.281536        -0.768331
 C        -2.968082         2.789149        -1.933230
 O        -3.407866         1.308099        -2.098009
 C        -2.937763         1.018583        -0.758922
 C        -1.947648        -0.057329        -0.212248
 C        -1.457875         2.380037         0.637475
 H         0.518103        -0.365566         0.702892
 H         0.114960         2.335358        -1.160623
 H        -0.554944         1.119937        -2.105793
 H        -3.933631         3.337606        -1.750345
 H        -2.474505         3.098333        -2.820489
 H        -3.853860         1.240045        -0.139500
 H        -2.303126        -0.652379         0.685089
 H        -1.469707        -0.710133        -0.959496
 H        -0.573149         3.036020         0.691959
 H        -1.883968         2.459878         1.689875
