19
Iteration:  3493charge 0 multiplicity 1
 O         0.400412         0.500233         0.671478
 C        -0.747846         1.054662         0.153041
 C        -0.685420         1.570683        -1.312448
 C        -1.990524         2.324883        -0.863207
 C        -2.915186         2.658829        -2.069977
 O        -3.349313         1.280752        -2.014754
 C        -2.981406         1.100226        -0.609366
 C        -1.998921         0.102945         0.015789
 C        -1.328578         2.406974         0.644218
 H         0.086944        -0.027444         1.387493
 H         0.045173         2.385111        -1.522183
 H        -0.831264         0.891101        -2.125221
 H        -3.792105         3.414933        -1.951951
 H        -2.454319         2.891145        -3.051950
 H        -3.818375         1.408913         0.016940
 H        -2.343843        -0.274762         1.078436
 H        -1.788751        -0.714990        -0.649737
 H        -0.611086         3.165528         0.652179
 H        -2.140133         2.331461         1.380461
