19
Iteration:  1179charge 0 multiplicity 1
 O         0.380784         0.364767         0.743819
 C        -0.729433         1.011279         0.116314
 C        -0.563791         1.705259        -1.256392
 C        -1.970153         2.313779        -0.796002
 C        -2.945964         2.708668        -2.029786
 O        -3.425045         1.179338        -1.967295
 C        -3.020656         1.076278        -0.618472
 C        -1.954826         0.125625        -0.147549
 C        -1.379998         2.545430         0.540879
 H        -0.042128        -0.162487         1.434854
 H         0.150017         2.541247        -1.174419
 H        -0.579742         1.114053        -2.194960
 H        -3.796940         3.352851        -1.729185
 H        -2.502764         2.878084        -3.015108
 H        -3.923310         1.366749        -0.000556
 H        -2.155774        -0.382530         0.647203
 H        -1.780596        -0.540440        -1.014327
 H        -0.475724         3.143289         0.691678
 H        -2.016890         2.737291         1.443840
