19
Iteration:  4157
 O         0.274735         0.367420         0.833165
 C        -0.791253         1.001304         0.112421
 C        -0.602991         1.632992        -1.273209
 C        -2.057474         2.318781        -0.829489
 C        -3.050359         2.711751        -1.947173
 O        -3.310924         1.243404        -2.078643
 C        -2.885839         1.056584        -0.665907
 C        -1.908776         0.093872        -0.088392
 C        -1.336503         2.552144         0.562657
 H         1.202049         0.686925         0.569467
 H         0.035549         2.484171        -1.483817
 H        -0.810162         0.921761        -2.090079
 H        -4.087759         3.047018        -1.469781
 H        -2.540477         3.148233        -2.825139
 H        -3.899400         1.081567        -0.066075
 H        -2.280831        -0.223152         0.892420
 H        -1.726778        -0.817078        -0.746111
 H        -0.480018         3.235490         0.422641
 H        -1.849409         2.840829         1.496960
