19
Iteration:  1848charge 0 multiplicity 1
 O         0.375348         0.541561         0.825463
 C        -0.717240         1.053170         0.156983
 C        -0.593680         1.469914        -1.262575
 C        -1.946250         2.222456        -0.967956
 C        -2.857845         2.699933        -1.999329
 O        -3.599663         1.387699        -1.943919
 C        -2.993182         1.128938        -0.649466
 C        -2.014819         0.036051        -0.056224
 C        -1.333996         2.383877         0.533906
 H         1.172136         0.712135         0.211174
 H         0.157670         2.244419        -1.480621
 H        -0.536329         0.696304        -2.017690
 H        -3.655100         3.407848        -1.800900
 H        -2.461350         2.833131        -3.028009
 H        -3.734912         1.441048         0.156364
 H        -2.311996        -0.322549         0.860116
 H        -1.648244        -0.716512        -0.760853
 H        -0.476386         3.212154         0.593816
 H        -2.055950         2.288904         1.327952
