19
Iteration:  4080charge 0 multiplicity 1
 O         0.388589         0.543934         0.815665
 C        -0.741388         1.003538         0.153211
 C        -0.634238         1.592193        -1.307055
 C        -1.932197         2.197428        -0.898266
 C        -2.973445         2.721066        -1.911358
 O        -3.470086         1.335747        -2.013109
 C        -2.937761         1.014427        -0.704110
 C        -1.937908         0.031663        -0.120034
 C        -1.398667         2.488274         0.512377
 H         0.262490         0.315902         1.785623
 H         0.110237         2.373853        -1.585761
 H        -0.432614         0.839188        -2.077839
 H        -3.821953         3.476738        -1.535129
 H        -2.653556         3.167892        -2.886143
 H        -3.775494         1.298440         0.078483
 H        -2.209751        -0.457752         0.852277
 H        -1.527698        -0.898559        -0.683678
 H        -0.606710         3.172563         0.308640
 H        -1.987557         2.649160         1.422978
