19
Iteration:  1289charge 0 multiplicity 1
 O         0.413843         0.398582         0.697206
 C        -0.776045         1.057803         0.130821
 C        -0.635868         1.727589        -1.322640
 C        -2.017356         2.344417        -0.783265
 C        -2.912442         2.723426        -1.995946
 O        -3.374851         1.206094        -2.074145
 C        -3.002017         1.125312        -0.655459
 C        -1.948906         0.041803        -0.051991
 C        -1.398182         2.415575         0.637230
 H         0.249475         0.406307         1.660620
 H         0.186259         2.442791        -1.393209
 H        -0.734444         1.034587        -2.175629
 H        -3.795747         3.302937        -1.682413
 H        -2.403578         3.022617        -2.916314
 H        -3.879279         1.235117         0.086876
 H        -2.196903        -0.574085         0.825286
 H        -1.726049        -0.809977        -0.794889
 H        -0.556762         3.189844         0.691143
 H        -2.086951         2.436991         1.439016
