19
Iteration:  4945charge 0 multiplicity 1
 O         0.424425         0.584325         0.830258
 C        -0.846500         1.022661         0.159246
 C        -0.696007         1.527198        -1.232792
 C        -1.992737         2.258898        -0.798050
 C        -2.928055         2.733246        -1.946045
 O        -3.420842         1.327876        -2.074311
 C        -2.888319         1.101070        -0.707137
 C        -1.939005        -0.001802        -0.201235
 C        -1.430952         2.338030         0.588483
 H         1.049485         1.361851         0.767608
 H         0.036131         2.314420        -1.423308
 H        -0.696278         0.792068        -2.008112
 H        -3.596460         3.516750        -1.664991
 H        -2.251757         3.034804        -2.778708
 H        -3.812303         1.215409        -0.149751
 H        -2.397602        -0.494986         0.801680
 H        -1.579244        -0.806977        -0.860122
 H        -0.489269         2.895947         0.875850
 H        -2.278095         2.417557         1.218256
