19
Iteration:   259charge 0 multiplicity 1
 O         0.372111         0.452290         0.815833
 C        -0.714974         1.042491         0.144411
 C        -0.700965         1.770743        -1.295161
 C        -1.993431         2.336478        -0.767472
 C        -3.068498         2.717373        -1.795980
 O        -3.284577         1.254821        -2.137584
 C        -2.895580         1.035759        -0.705077
 C        -1.893993         0.014873        -0.276422
 C        -1.436520         2.431080         0.643968
 H         0.046999        -0.399472         1.091099
 H         0.093167         2.495362        -1.562606
 H        -0.477225         1.019765        -2.060096
 H        -4.030953         3.163179        -1.444724
 H        -2.680661         3.190965        -2.639201
 H        -3.776128         1.131740        -0.033460
 H        -2.284856        -0.685870         0.494620
 H        -1.475078        -0.550927        -1.119474
 H        -0.649076         3.200932         0.798360
 H        -2.324066         2.533694         1.464876
