19
Iteration:  2551
 O         0.419883         0.527635         0.760018
 C        -0.749452         1.009161         0.130783
 C        -0.667298         1.509716        -1.332345
 C        -1.919758         2.262062        -0.914057
 C        -2.910879         2.724029        -2.067890
 O        -3.646292         1.414822        -1.960403
 C        -2.884697         1.069108        -0.614798
 C        -1.942915         0.005591        -0.003749
 C        -1.302335         2.364157         0.549824
 H         0.361170         0.917788         1.614349
 H         0.213975         2.141479        -1.480708
 H        -0.677555         0.690505        -2.044504
 H        -3.627997         3.602019        -1.960179
 H        -2.526078         2.983953        -3.114729
 H        -3.593738         1.364621         0.119742
 H        -2.338511        -0.305008         0.922195
 H        -1.802129        -0.845666        -0.694780
 H        -0.463141         3.074577         0.637697
 H        -2.012655         2.565044         1.452946
