19
Iteration:    41charge 0 multiplicity 1
 O         0.259061         0.366162         0.858099
 C        -0.716767         1.040452         0.151485
 C        -0.557305         1.713794        -1.264947
 C        -1.952102         2.305388        -0.906190
 C        -3.088667         2.722888        -1.855682
 O        -3.485565         1.309270        -2.025219
 C        -2.825445         1.006239        -0.681178
 C        -1.844524        -0.019756        -0.196625
 C        -1.403664         2.475457         0.512239
 H         1.016788         1.013731         0.845527
 H         0.142857         2.560150        -1.127251
 H        -0.409648         1.132479        -2.172330
 H        -3.952302         3.302820        -1.363498
 H        -2.990649         3.238442        -2.796819
 H        -3.698012         1.211969        -0.008815
 H        -2.117567        -0.659328         0.710417
 H        -1.472128        -0.741937        -0.954703
 H        -0.612716         3.183516         0.433744
 H        -2.239054         2.603637         1.222682
