19
Iteration:  4248
 O         0.338051         0.359995         0.769482
 C        -0.681387         1.042402         0.176669
 C        -0.629937         1.667466        -1.233895
 C        -1.987404         2.281667        -0.828770
 C        -2.911031         2.634651        -2.093926
 O        -3.494238         1.318639        -1.945894
 C        -2.943064         1.074279        -0.689565
 C        -1.937353         0.059576        -0.152513
 C        -1.456985         2.530025         0.620595
 H         1.042294         1.041630         0.856118
 H         0.118130         2.507254        -1.316268
 H        -0.486052         0.948184        -2.091549
 H        -3.790596         3.369982        -2.038044
 H        -2.235392         2.677424        -2.950395
 H        -3.847104         1.208022         0.040663
 H        -2.141405        -0.628215         0.732088
 H        -1.481487        -0.662730        -0.938949
 H        -0.704052         3.298029         0.671717
 H        -2.031960         2.491637         1.500459
