19
Iteration:  1499
 O         0.412617         0.689767         0.850052
 C        -0.746801         0.956331         0.179303
 C        -0.679516         1.550471        -1.296493
 C        -1.953319         2.253739        -0.870955
 C        -2.953330         2.782287        -1.917077
 O        -3.443814         1.419092        -2.116550
 C        -2.915297         1.000956        -0.719808
 C        -2.008996        -0.059470        -0.042844
 C        -1.366032         2.342336         0.552487
 H         0.805613        -0.101931         0.589758
 H         0.248204         2.215473        -1.279003
 H        -0.771333         0.933636        -2.206525
 H        -3.649204         3.445704        -1.377808
 H        -2.499854         3.188845        -2.844143
 H        -3.791122         1.211827        -0.002833
 H        -2.550258        -0.416406         0.986332
 H        -1.821129        -1.016819        -0.712665
 H        -0.516280         3.001605         0.397943
 H        -2.089127         2.482292         1.319781
