19
Iteration:  1472
 O         0.466849         0.614067         0.764270
 C        -0.730503         1.010262         0.126289
 C        -0.688332         1.557832        -1.276882
 C        -1.983180         2.316277        -0.807698
 C        -2.908208         2.705433        -1.940346
 O        -3.348011         1.274199        -2.089445
 C        -2.974386         1.132065        -0.655471
 C        -2.041520         0.062831        -0.113529
 C        -1.431325         2.332372         0.621383
 H         0.488371        -0.286203         0.989951
 H         0.052160         2.287900        -1.571427
 H        -0.739373         0.842163        -2.106918
 H        -3.744662         3.342622        -1.567513
 H        -2.413113         3.165332        -2.795824
 H        -3.933110         1.312636         0.012075
 H        -2.347084        -0.339438         0.775105
 H        -1.960648        -0.692481        -0.846743
 H        -0.565790         3.000284         0.687497
 H        -2.254074         2.352255         1.402239
