19
Iteration:  1922
 O         0.355814         0.279999         0.808717
 C        -0.710096         1.021366         0.086039
 C        -0.678254         1.628208        -1.371172
 C        -2.008832         2.310559        -0.893683
 C        -2.992392         2.677052        -1.999425
 O        -3.409783         1.224165        -1.974162
 C        -2.929498         1.211432        -0.614180
 C        -2.008455         0.123937         0.079940
 C        -1.254873         2.507737         0.460806
 H         0.961381         0.816617         1.306157
 H         0.157231         2.420711        -1.524008
 H        -0.722061         1.028558        -2.331617
 H        -3.764357         3.378363        -1.664791
 H        -2.744366         2.904624        -3.017970
 H        -3.811734         1.433002         0.016877
 H        -2.529928        -0.160329         0.997487
 H        -1.954320        -0.866893        -0.519824
 H        -0.416523         3.225498         0.460653
 H        -1.935594         2.573774         1.167835
