19
Iteration:  2775
 O         0.397007         0.509115         0.715940
 C        -0.813821         1.014114         0.134253
 C        -0.671447         1.518887        -1.348560
 C        -1.975884         2.239548        -0.845823
 C        -2.968258         2.750045        -1.894860
 O        -3.397271         1.281953        -2.067794
 C        -2.911956         1.096793        -0.661536
 C        -2.033830         0.085449         0.000456
 C        -1.249782         2.471407         0.508126
 H         0.090608         0.184067         1.631401
 H         0.222517         2.204157        -1.341266
 H        -0.791533         0.650711        -2.064128
 H        -3.851371         3.287937        -1.442273
 H        -2.799065         3.078412        -2.953662
 H        -3.701351         1.524927         0.050006
 H        -2.448947        -0.191948         0.899065
 H        -1.721709        -0.744783        -0.569681
 H        -0.429590         3.200416         0.378952
 H        -1.674931         2.628959         1.548596
