19
Iteration:   525charge 0 multiplicity 1
 O         0.302552         0.357397         0.826227
 C        -0.653493         1.065426         0.109371
 C        -0.702220         1.731987        -1.284292
 C        -2.103997         2.329854        -0.801392
 C        -2.988945         2.771817        -1.944495
 O        -3.414598         1.290218        -2.106378
 C        -2.909385         1.083824        -0.663687
 C        -1.796189        -0.026946        -0.181778
 C        -1.410895         2.347941         0.598882
 H         0.966091         0.918849         1.208336
 H         0.129545         2.436034        -1.405429
 H        -0.770656         1.067399        -2.119422
 H        -3.850297         3.480074        -1.508601
 H        -2.498150         3.273526        -2.787335
 H        -3.698853         0.945772         0.098798
 H        -2.177810        -0.381530         0.809588
 H        -1.367554        -0.761548        -0.876731
 H        -0.828926         3.343410         0.742846
 H        -1.947650         2.256758         1.545172
