19
Iteration:   526
 O         0.306381         0.359250         0.825643
 C        -0.648933         1.063025         0.104810
 C        -0.702525         1.733469        -1.282302
 C        -2.103699         2.332136        -0.809151
 C        -2.984288         2.764668        -1.936439
 O        -3.415445         1.295807        -2.101327
 C        -2.919168         1.076270        -0.664176
 C        -1.796514        -0.020582        -0.184205
 C        -1.413486         2.343725         0.598031
 H         0.925492         0.917935         1.226749
 H         0.132066         2.436669        -1.429258
 H        -0.758744         1.067001        -2.123366
 H        -3.808548         3.465287        -1.526752
 H        -2.481501         3.280961        -2.796696
 H        -3.697939         0.926277         0.093127
 H        -2.182949        -0.367192         0.830182
 H        -1.376404        -0.778083        -0.876023
 H        -0.827252         3.375404         0.777505
 H        -1.974240         2.269715         1.532855
