19
Iteration:  4866charge 0 multiplicity 1
 O         0.289709         0.384644         0.854102
 C        -0.785105         1.011581         0.153799
 C        -0.666201         1.669275        -1.271311
 C        -1.987785         2.344610        -0.822541
 C        -3.106131         2.655728        -1.934778
 O        -3.249996         1.246528        -2.028150
 C        -2.882105         1.130764        -0.726841
 C        -1.913265         0.087165        -0.159931
 C        -1.375888         2.460864         0.544030
 H         1.097725         0.955029         0.913755
 H         0.237287         2.232408        -1.185674
 H        -0.792007         0.960859        -2.107164
 H        -4.023352         3.081851        -1.564688
 H        -2.797827         3.218269        -2.830048
 H        -3.869971         1.177773        -0.280264
 H        -2.339212        -0.577488         0.623021
 H        -1.518450        -0.646134        -0.941172
 H        -0.609399         3.252159         0.546290
 H        -2.034413         2.516724         1.446923
