19
Iteration:  2588charge 0 multiplicity 1
 O         0.492303         0.512558         0.674002
 C        -0.712410         0.973442         0.140541
 C        -0.675271         1.561505        -1.243637
 C        -1.948968         2.317806        -0.933019
 C        -2.912218         2.679365        -2.047676
 O        -3.478106         1.281852        -1.971768
 C        -2.916267         1.173032        -0.559482
 C        -2.111428        -0.008792        -0.017750
 C        -1.365195         2.524477         0.546868
 H         0.384328        -0.084460         1.454879
 H         0.232475         2.246977        -1.515097
 H        -0.853516         0.758303        -2.033399
 H        -3.733028         3.380039        -1.753770
 H        -2.342125         2.889979        -3.013009
 H        -3.799730         1.381604         0.159098
 H        -2.464960        -0.473704         0.947478
 H        -2.108608        -0.716745        -0.899799
 H        -0.461466         3.173273         0.642888
 H        -1.988350         2.683195         1.363209
