19
Iteration:   382
 O         0.363620         0.425965         0.838260
 C        -0.686952         0.998390         0.107800
 C        -0.564300         1.806565        -1.218475
 C        -1.971287         2.289298        -0.887245
 C        -3.122037         2.722026        -1.875918
 O        -3.419712         1.335933        -2.114512
 C        -2.869282         1.055863        -0.757884
 C        -1.849915         0.017996        -0.174886
 C        -1.440781         2.373691         0.597804
 H        -0.063144        -0.349712         1.300202
 H         0.160740         2.545858        -1.252591
 H        -0.459575         1.053761        -1.973846
 H        -3.845077         3.128291        -1.143328
 H        -3.142422         3.262549        -2.773942
 H        -3.636763         1.265837         0.008773
 H        -2.171396        -0.414455         0.774658
 H        -1.411853        -0.653857        -0.969630
 H        -0.823941         3.301632         0.772126
 H        -2.260767         2.102310         1.396396
