19
Iteration:  1842
 O         0.384275         0.530693         0.800561
 C        -0.779261         1.079074         0.180216
 C        -0.586537         1.517794        -1.298966
 C        -1.917565         2.221331        -0.973955
 C        -2.880416         2.708592        -2.043251
 O        -3.612526         1.362959        -1.957887
 C        -2.998852         1.147023        -0.626070
 C        -1.956367         0.029521        -0.044962
 C        -1.326488         2.358967         0.575432
 H         1.189886         0.473554         0.284817
 H         0.229192         2.243835        -1.449695
 H        -0.668443         0.769485        -2.124336
 H        -3.546833         3.606794        -1.906778
 H        -2.369541         2.599036        -3.020062
 H        -3.756252         1.369524         0.187496
 H        -2.556825        -0.195791         0.957523
 H        -1.617435        -0.764095        -0.720213
 H        -0.626231         3.083468         0.723631
 H        -1.902832         2.366428         1.589787
