19
Iteration:  3039
 O         0.470892         0.565658         0.827066
 C        -0.656722         0.991182         0.110374
 C        -0.631995         1.489542        -1.318200
 C        -1.992870         2.166524        -0.847755
 C        -2.900007         2.762682        -1.984016
 O        -3.531596         1.417582        -2.053371
 C        -2.979318         1.104313        -0.648253
 C        -2.020231         0.028982        -0.091070
 C        -1.358470         2.320868         0.521031
 H         0.386326         1.154059         1.674883
 H         0.263443         2.144640        -1.544573
 H        -0.752072         0.747856        -2.187510
 H        -3.597010         3.488710        -1.583153
 H        -2.494644         3.187228        -2.884144
 H        -3.816564         1.316176         0.005313
 H        -2.477093        -0.360073         0.994254
 H        -1.832013        -0.788510        -0.762099
 H        -0.716941         3.172542         0.774963
 H        -2.126668         2.429402         1.442951
