19
Iteration:  1777charge 0 multiplicity 1
 O         0.347714         0.490418         0.808360
 C        -0.757203         0.995714         0.129825
 C        -0.729932         1.564645        -1.314803
 C        -1.952774         2.359995        -0.886752
 C        -3.093979         2.693265        -1.903538
 O        -3.313823         1.263158        -2.075431
 C        -2.900051         1.125338        -0.649947
 C        -2.005803         0.071145        -0.014109
 C        -1.230258         2.505806         0.486569
 H         0.152468        -0.495968         0.685210
 H         0.257013         2.032765        -1.536302
 H        -0.838230         0.726179        -2.080484
 H        -3.791242         3.289073        -1.296199
 H        -2.744636         3.117174        -2.850261
 H        -3.731269         1.332771        -0.078106
 H        -2.523151        -0.045016         1.067355
 H        -1.604842        -0.817115        -0.530972
 H        -0.408488         3.108450         0.516157
 H        -1.878682         2.505406         1.428809
