19
Iteration:  4443
 O         0.381999         0.605802         0.841520
 C        -0.796285         0.969193         0.124292
 C        -0.586509         1.572289        -1.292113
 C        -1.929591         2.249074        -0.873181
 C        -2.973452         2.770422        -1.921102
 O        -3.407845         1.368936        -2.140184
 C        -2.955284         1.070888        -0.696975
 C        -1.936511        -0.022475        -0.048135
 C        -1.466371         2.274502         0.574139
 H         0.874309         1.427626         0.810414
 H         0.172257         2.370293        -1.396986
 H        -0.594132         0.720976        -2.051715
 H        -3.677662         3.376834        -1.353423
 H        -2.578482         3.324037        -2.720975
 H        -3.817293         1.044481         0.006533
 H        -2.368839        -0.427753         0.856936
 H        -1.813171        -0.831398        -0.769090
 H        -0.491389         2.928549         0.794384
 H        -2.178212         2.457407         1.416108
