19
Iteration:  4848charge 0 multiplicity 1
 O         0.316587         0.475044         0.854940
 C        -0.741095         1.023742         0.125484
 C        -0.663112         1.664471        -1.307347
 C        -2.041090         2.253052        -0.837237
 C        -2.964962         2.757292        -1.888186
 O        -3.348466         1.266728        -2.221406
 C        -2.932812         1.049928        -0.645038
 C        -1.934036        -0.017855        -0.094132
 C        -1.369340         2.459730         0.623799
 H         1.108937         1.044155         0.992495
 H        -0.141669         2.627307        -1.559212
 H        -0.590907         0.892572        -2.083587
 H        -3.890867         3.294093        -1.599476
 H        -2.546235         3.168898        -2.836080
 H        -3.781388         1.142397         0.135476
 H        -2.313675        -0.497507         0.933682
 H        -1.754589        -0.852031        -0.790310
 H        -0.468926         3.138826         0.658479
 H        -1.968407         2.478416         1.501204
