19
Iteration:  1817charge 0 multiplicity 1
 O         0.393875         0.423262         0.798881
 C        -0.736801         1.001484         0.094758
 C        -0.679695         1.642077        -1.253611
 C        -1.971785         2.373073        -0.884228
 C        -2.899569         2.624047        -2.063984
 O        -3.475112         1.311214        -1.934851
 C        -2.921313         1.176111        -0.596057
 C        -2.021514         0.025366        -0.029126
 C        -1.332784         2.446638         0.488813
 H         0.974686        -0.177894         0.382276
 H         0.011682         2.434535        -1.378360
 H        -0.755249         1.064802        -2.142437
 H        -3.814454         3.255777        -2.092150
 H        -2.325688         2.665644        -3.027623
 H        -3.795042         1.389819         0.218446
 H        -2.365717        -0.181478         0.948973
 H        -1.919275        -0.801574        -0.749663
 H        -0.551249         3.219225         0.759131
 H        -2.012815         2.511128         1.406140
