19
Iteration:  1050
 O         0.392283         0.441898         0.724485
 C        -0.703587         0.996615         0.087953
 C        -0.567259         1.677946        -1.195044
 C        -1.943594         2.359501        -0.890947
 C        -2.962886         2.676222        -1.991306
 O        -3.546034         1.198780        -1.960303
 C        -2.885634         1.153201        -0.625429
 C        -1.959257         0.081195        -0.106891
 C        -1.402007         2.454095         0.521480
 H        -0.054121        -0.169817         1.361057
 H         0.213711         2.424277        -1.253072
 H        -0.485071         1.019394        -2.071947
 H        -3.622127         3.478548        -1.820638
 H        -2.445661         2.867125        -2.902952
 H        -3.680924         1.431456         0.167576
 H        -2.386955        -0.456157         0.785087
 H        -1.813634        -0.785145        -0.754193
 H        -0.688806         3.270090         0.576679
 H        -2.097660         2.478561         1.306693
