19
Iteration:  4179charge 0 multiplicity 1
 O         0.345685         0.379846         0.900040
 C        -0.731146         1.115329         0.133243
 C        -0.669152         1.596707        -1.323619
 C        -1.981383         2.219274        -0.884246
 C        -3.077169         2.753741        -1.819540
 O        -3.344323         1.294320        -2.190971
 C        -2.919864         1.064026        -0.775062
 C        -1.928317         0.062450         0.066868
 C        -1.350066         2.483831         0.522005
 H         1.193115         0.420421         0.513692
 H         0.086917         2.374814        -1.391048
 H        -0.745725         0.884068        -2.190678
 H        -3.912793         3.120303        -1.017769
 H        -2.827917         3.138855        -2.791672
 H        -3.839009         1.535182        -0.249274
 H        -2.391029        -0.460572         0.893018
 H        -1.500528        -0.692135        -0.676714
 H        -0.665604         3.347736         0.479694
 H        -2.145902         2.590434         1.271919
