19
Iteration:  1802
 O         0.342842         0.449782         0.782556
 C        -0.752848         1.007735         0.119333
 C        -0.654259         1.626839        -1.359048
 C        -1.990314         2.275947        -0.834214
 C        -2.936169         2.677984        -2.024865
 O        -3.364132         1.188735        -1.957670
 C        -2.970683         1.179120        -0.557172
 C        -2.052559         0.135814        -0.055056
 C        -1.304015         2.489451         0.561393
 H         0.384985        -0.311004         0.149464
 H         0.246631         2.306367        -1.379083
 H        -0.562252         0.935855        -2.234364
 H        -3.702875         3.404000        -1.658529
 H        -2.476915         2.866429        -2.980812
 H        -3.811733         1.517486         0.094332
 H        -2.295360        -0.315791         0.916087
 H        -1.758009        -0.552429        -0.907652
 H        -0.406624         3.209746         0.458764
 H        -1.962069         2.602142         1.370073
