19
Iteration:  3577charge 0 multiplicity 1
 O         0.217149         0.430269         0.993488
 C        -0.774337         1.047137         0.107665
 C        -0.561680         1.608414        -1.435229
 C        -1.900210         2.329687        -0.996338
 C        -3.026555         2.663642        -1.991365
 O        -3.455855         1.259060        -1.928583
 C        -2.886909         1.138022        -0.592214
 C        -1.964779         0.009639        -0.049572
 C        -1.262468         2.485364         0.412109
 H         1.036382         0.181914         0.436833
 H         0.069541         2.530571        -1.412468
 H        -0.458508         0.941948        -2.323218
 H        -3.816951         3.168524        -1.403639
 H        -2.830731         3.111603        -2.951909
 H        -3.601546         1.458680         0.231384
 H        -2.356346        -0.224860         0.955485
 H        -1.951052        -0.902216        -0.765262
 H        -0.455021         3.289582         0.650962
 H        -1.911966         2.622994         1.310815
