19
Iteration:  1520
 O         0.282150         0.528752         0.940805
 C        -0.719650         1.058941         0.125179
 C        -0.618159         1.503888        -1.352936
 C        -1.994182         2.220359        -0.842261
 C        -2.998886         2.763848        -1.891028
 O        -3.477750         1.341486        -2.094617
 C        -2.947191         1.085107        -0.744078
 C        -1.890300         0.049648        -0.110837
 C        -1.323871         2.436200         0.558077
 H         0.989342         0.114923         0.376740
 H         0.244019         2.175788        -1.487509
 H        -0.570459         0.742651        -2.115213
 H        -3.722972         3.409886        -1.374191
 H        -2.588523         3.191816        -2.822139
 H        -3.635555         1.376371         0.170178
 H        -2.303644        -0.428254         0.887552
 H        -1.478551        -0.784207        -0.813307
 H        -0.503217         3.197386         0.662662
 H        -2.016922         2.263932         1.295347
