19
Iteration:  3653charge 0 multiplicity 1
 O         0.379234         0.518501         0.755572
 C        -0.745706         1.012538         0.072392
 C        -0.676188         1.505670        -1.345391
 C        -1.931098         2.286904        -0.901517
 C        -2.944992         2.692597        -2.034091
 O        -3.388835         1.255183        -2.038351
 C        -3.032904         1.140584        -0.672606
 C        -2.102187         0.077361         0.080778
 C        -1.218634         2.421896         0.599973
 H         0.802111         1.130749         1.351039
 H         0.248784         2.154101        -1.435287
 H        -0.921625         0.770629        -2.140379
 H        -3.714094         3.433642        -1.512428
 H        -2.476962         3.031395        -3.015350
 H        -3.800002         1.459206        -0.041268
 H        -2.536769         0.013991         1.053967
 H        -1.789390        -0.953858        -0.210685
 H        -0.385608         3.162523         0.782361
 H        -2.065095         2.357497         1.311051
