19
Iteration:  1249
 O         0.502358         0.677479         0.759010
 C        -0.728444         0.920924         0.128508
 C        -0.604348         1.524074        -1.291209
 C        -1.983539         2.180602        -0.874410
 C        -2.888538         2.802550        -1.880551
 O        -3.445145         1.355011        -2.098347
 C        -3.018973         1.076743        -0.725131
 C        -2.054303        -0.021168        -0.060118
 C        -1.444949         2.375639         0.581583
 H         0.429990         0.217465         1.643686
 H         0.206030         2.300425        -1.414656
 H        -0.731016         0.737612        -2.092741
 H        -3.736046         3.343010        -1.459589
 H        -2.430499         3.225112        -2.811130
 H        -3.880278         1.264895        -0.026743
 H        -2.444240        -0.501653         0.904510
 H        -1.617855        -0.623294        -0.825174
 H        -0.608092         3.190193         0.698822
 H        -2.036577         2.612884         1.480820
