19
Iteration:   888charge 0 multiplicity 1
 O         0.413539         0.479310         0.862763
 C        -0.741196         0.981865         0.151460
 C        -0.623426         1.583739        -1.265407
 C        -1.971918         2.260554        -0.916952
 C        -2.965556         2.672892        -1.932611
 O        -3.506607         1.337351        -1.997124
 C        -2.921050         1.128901        -0.660199
 C        -1.946798         0.104343        -0.126606
 C        -1.408226         2.376455         0.519293
 H         1.174485         0.833088         0.462509
 H         0.054599         2.415012        -1.376373
 H        -0.625131         0.850537        -2.153918
 H        -3.681802         3.538855        -1.617922
 H        -2.485113         2.950620        -2.895673
 H        -3.737685         1.275890        -0.078882
 H        -2.350159        -0.494490         0.722908
 H        -1.838847        -0.782465        -0.846958
 H        -0.525235         3.165196         0.642078
 H        -2.175150         2.468634         1.293511
