19
Iteration:  1776
 O         0.357191         0.488943         0.816057
 C        -0.758600         0.994888         0.130049
 C        -0.730156         1.561729        -1.324290
 C        -1.957289         2.355815        -0.882023
 C        -3.096845         2.702953        -1.905168
 O        -3.312654         1.270135        -2.073700
 C        -2.895405         1.120804        -0.655756
 C        -2.008134         0.067239        -0.009497
 C        -1.233662         2.500117         0.480225
 H         0.153625        -0.482274         0.705160
 H         0.247205         2.013888        -1.523537
 H        -0.836764         0.751779        -2.094996
 H        -3.805879         3.282060        -1.296412
 H        -2.760829         3.110559        -2.876225
 H        -3.720714         1.319630        -0.073402
 H        -2.511529        -0.022719         1.063488
 H        -1.620203        -0.816289        -0.527592
 H        -0.418649         3.116743         0.525404
 H        -1.886063         2.540322         1.436988
