19
Iteration:  3326
 O         0.226064         0.370463         0.722365
 C        -0.782686         1.069535         0.144874
 C        -0.636195         1.706187        -1.313213
 C        -2.074581         2.319784        -0.805937
 C        -2.978533         2.683649        -1.943340
 O        -3.246196         1.222311        -2.059582
 C        -2.908863         1.100542        -0.636309
 C        -1.988799         0.061017        -0.023176
 C        -1.289709         2.430378         0.569289
 H         0.976753         0.914717         0.819161
 H         0.068421         2.484331        -1.492836
 H        -0.670486         1.039622        -2.187616
 H        -4.091938         3.098830        -1.624908
 H        -2.526814         3.060017        -2.845226
 H        -3.742276         1.449711         0.001366
 H        -2.333700        -0.273370         0.926363
 H        -1.664045        -0.762393        -0.774338
 H        -0.539220         3.255646         0.430257
 H        -1.856943         2.381484         1.459260
