19
Iteration:  2786charge 0 multiplicity 1
 O         0.392644         0.545952         0.686807
 C        -0.693429         1.071396         0.166104
 C        -0.686637         1.451381        -1.303116
 C        -1.965999         2.267191        -0.858138
 C        -2.980690         2.753061        -2.015884
 O        -3.442817         1.282565        -2.050545
 C        -2.961407         1.141983        -0.672353
 C        -2.019518         0.090455         0.063765
 C        -1.258222         2.392799         0.589261
 H         0.281553        -0.030253         1.438737
 H         0.125688         2.198213        -1.627129
 H        -0.744378         0.850370        -2.274114
 H        -3.775088         3.463297        -1.642190
 H        -2.503074         3.193560        -2.949185
 H        -3.916434         1.220448        -0.007915
 H        -2.467504        -0.351643         0.875065
 H        -1.739643        -0.701399        -0.563279
 H        -0.386083         3.071809         0.601029
 H        -1.892150         2.409075         1.550166
