19
Iteration:  4990
 O         0.229272         0.304412         0.828960
 C        -0.689464         1.067441         0.184683
 C        -0.634966         1.721251        -1.275879
 C        -1.998843         2.336981        -0.880466
 C        -3.090628         2.719907        -1.974319
 O        -3.335513         1.230706        -2.097967
 C        -2.879107         1.022674        -0.695507
 C        -1.847033         0.145713        -0.117266
 C        -1.371835         2.425335         0.628233
 H         0.971949         0.937747         0.839771
 H         0.222290         2.394523        -1.370983
 H        -0.636106         1.049432        -2.116312
 H        -4.008233         3.119781        -1.525593
 H        -2.885325         3.300949        -2.908194
 H        -3.768471         1.363880        -0.108906
 H        -2.482582        -0.298488         0.881871
 H        -1.634172        -0.835676        -0.578580
 H        -0.641745         3.274482         0.411702
 H        -1.908519         2.444374         1.566222
