19
Iteration:  3811charge 0 multiplicity 1
 O         0.246428         0.531487         0.847827
 C        -0.787640         0.976872         0.087105
 C        -0.607432         1.569981        -1.450720
 C        -1.877648         2.349653        -0.907562
 C        -3.150084         2.654499        -1.963501
 O        -3.297950         1.199815        -2.022996
 C        -2.859586         1.171890        -0.643186
 C        -1.997725         0.122248         0.008577
 C        -1.245512         2.465571         0.549523
 H         0.073785        -0.388822         1.002135
 H         0.212457         2.194996        -1.550832
 H        -0.744411         0.811974        -2.210191
 H        -3.974883         3.106649        -1.334132
 H        -2.941154         3.147723        -2.900689
 H        -3.620301         1.413066         0.037164
 H        -2.377690         0.010193         1.053470
 H        -1.816877        -0.804326        -0.466291
 H        -0.420999         3.191701         0.739731
 H        -1.865559         2.486041         1.486146
