19
Iteration:  1097
 O         0.399501         0.513068         0.782021
 C        -0.801762         0.957825         0.146136
 C        -0.687665         1.539895        -1.311808
 C        -2.009026         2.276571        -0.796936
 C        -3.028468         2.792501        -1.886046
 O        -3.387012         1.271640        -2.113793
 C        -2.920763         1.086779        -0.751793
 C        -1.950790         0.034157        -0.070500
 C        -1.269716         2.492123         0.537947
 H         0.298548         0.542756         1.805501
 H         0.164064         2.191707        -1.464287
 H        -0.682803         0.848116        -2.153453
 H        -3.976520         3.266148        -1.596322
 H        -2.682035         3.391305        -2.759042
 H        -3.716754         1.217285         0.166577
 H        -2.350329        -0.440496         0.847098
 H        -1.802803        -0.914870        -0.547130
 H        -0.316542         3.045178         0.351951
 H        -1.727728         2.733694         1.465941
