19
Iteration:  1098charge 0 multiplicity 1
 O         0.405828         0.517125         0.783361
 C        -0.805144         0.951918         0.154595
 C        -0.689696         1.538178        -1.320305
 C        -2.006248         2.272164        -0.800282
 C        -3.025007         2.798063        -1.883114
 O        -3.385324         1.271795        -2.116654
 C        -2.932790         1.078844        -0.753203
 C        -1.951144         0.034679        -0.068144
 C        -1.266170         2.491179         0.540990
 H         0.310282         0.542884         1.782583
 H         0.163350         2.215798        -1.471852
 H        -0.668901         0.842592        -2.156276
 H        -3.980414         3.296268        -1.586239
 H        -2.670109         3.402351        -2.763827
 H        -3.743618         1.214323         0.171796
 H        -2.350244        -0.427862         0.799449
 H        -1.805692        -0.916379        -0.512827
 H        -0.343764         3.058144         0.335214
 H        -1.735580         2.762507         1.500812
