19
Iteration:  1010
 O         0.455948         0.587846         0.759578
 C        -0.741424         1.001607         0.133170
 C        -0.726775         1.542152        -1.308489
 C        -2.002401         2.264271        -0.806288
 C        -2.859453         2.695625        -1.923398
 O        -3.490354         1.322016        -2.011324
 C        -2.952557         1.135074        -0.637061
 C        -1.946051         0.040662        -0.125425
 C        -1.368710         2.414746         0.517835
 H         0.420715        -0.055668         1.500547
 H         0.223234         2.062213        -1.454241
 H        -0.775497         0.792877        -2.119644
 H        -3.690552         3.476384        -1.891344
 H        -2.429682         2.770460        -2.983359
 H        -3.901759         1.466527        -0.085337
 H        -2.222267        -0.399521         0.859213
 H        -1.784538        -0.867093        -0.816546
 H        -0.705565         3.352327         0.619592
 H        -2.026481         2.317066         1.416126
