19
Iteration:  4128
 O         0.409714         0.460286         0.738981
 C        -0.804016         1.045779         0.121079
 C        -0.654657         1.666154        -1.289848
 C        -1.990440         2.312218        -0.895743
 C        -2.883335         2.616413        -2.056630
 O        -3.383060         1.268154        -1.956581
 C        -2.930226         1.144308        -0.575927
 C        -2.012443         0.066597        -0.100549
 C        -1.400746         2.368967         0.641939
 H         0.883894         1.190726         1.119891
 H         0.060613         2.459288        -1.528692
 H        -0.715124         1.078773        -2.270873
 H        -3.687748         3.242326        -1.874528
 H        -2.371868         2.858849        -2.961637
 H        -3.783183         1.313934         0.038703
 H        -2.503607        -0.468532         0.749513
 H        -1.892202        -0.756788        -0.924727
 H        -0.699887         3.182265         0.935571
 H        -2.217219         2.189537         1.291539
