19
Iteration:  4251charge 0 multiplicity 1
 O         0.321962         0.336251         0.764442
 C        -0.695216         1.048905         0.177696
 C        -0.593811         1.689470        -1.277277
 C        -1.979909         2.274885        -0.810093
 C        -2.935153         2.651547        -2.108744
 O        -3.495984         1.312209        -1.936419
 C        -2.914485         1.055255        -0.686518
 C        -1.919616         0.051183        -0.130655
 C        -1.465962         2.532187         0.611437
 H         0.941630         1.034128         0.864650
 H         0.159338         2.585116        -1.225066
 H        -0.539548         0.941735        -2.082690
 H        -3.764026         3.281630        -2.045805
 H        -2.275161         2.769283        -3.056413
 H        -3.829355         1.275766        -0.048952
 H        -2.223403        -0.608181         0.741323
 H        -1.520310        -0.651560        -0.851412
 H        -0.726255         3.353013         0.716589
 H        -2.009957         2.590006         1.654300
