19
Iteration:  1887
 O         0.234334         0.424228         0.882269
 C        -0.782023         1.027704         0.103474
 C        -0.677986         1.509516        -1.387998
 C        -1.904445         2.320190        -0.891930
 C        -3.079187         2.721688        -1.927855
 O        -3.424398         1.278730        -1.959328
 C        -2.849650         1.117106        -0.682276
 C        -1.967118         0.044954        -0.040186
 C        -1.179393         2.491876         0.406143
 H         0.902790         1.008286         1.218606
 H         0.177950         2.189869        -1.612006
 H        -0.827139         0.643416        -2.079207
 H        -3.818117         3.241302        -1.283128
 H        -2.846189         3.238282        -2.854980
 H        -3.660467         1.425622         0.100766
 H        -2.370356        -0.355283         0.995140
 H        -1.621910        -0.758582        -0.746710
 H        -0.417319         3.197522         0.486060
 H        -1.818460         2.714306         1.276527
