19
Iteration:  1488charge 0 multiplicity 1
 O         0.505515         0.691617         0.836661
 C        -0.764744         0.941679         0.129204
 C        -0.691776         1.555209        -1.334683
 C        -2.000391         2.189657        -0.824032
 C        -2.931893         2.793763        -1.910359
 O        -3.369051         1.373985        -2.083858
 C        -2.958526         1.081945        -0.720715
 C        -2.096872        -0.090359        -0.053086
 C        -1.375000         2.409671         0.542062
 H         0.683178        -0.293646         0.789210
 H         0.269872         2.173597        -1.266270
 H        -0.633393         0.986429        -2.277490
 H        -3.756350         3.499083        -1.650941
 H        -2.563420         3.174235        -2.890611
 H        -3.768140         1.376528         0.010361
 H        -2.671479        -0.525732         0.943343
 H        -1.709586        -0.994404        -0.730695
 H        -0.793149         3.261972         0.914233
 H        -2.018883         2.318427         1.393260
