19
Iteration:  1924charge 0 multiplicity 1
 O         0.362920         0.285450         0.788837
 C        -0.703007         1.017160         0.115322
 C        -0.690818         1.616263        -1.364003
 C        -2.010945         2.312197        -0.908755
 C        -2.981705         2.677968        -1.996439
 O        -3.408650         1.234713        -1.968206
 C        -2.912180         1.210346        -0.603485
 C        -2.021516         0.120135         0.072645
 C        -1.281225         2.504861         0.456601
 H         0.966751         0.864249         1.228581
 H         0.141118         2.386549        -1.460171
 H        -0.720296         1.083390        -2.338314
 H        -3.745399         3.397467        -1.740889
 H        -2.730712         2.828148        -3.051939
 H        -3.736760         1.396846        -0.034771
 H        -2.547904        -0.186635         0.940060
 H        -1.971097        -0.872259        -0.448972
 H        -0.382689         3.216635         0.473185
 H        -1.937696         2.640124         1.264298
