19
Iteration:  1550
 O         0.237708         0.341366         0.908509
 C        -0.779085         0.958230         0.113541
 C        -0.609100         1.700902        -1.330544
 C        -1.965816         2.335788        -0.882380
 C        -3.016099         2.662793        -1.973702
 O        -3.422108         1.225825        -1.965134
 C        -2.861840         1.165899        -0.630092
 C        -1.928144         0.042829        -0.177177
 C        -1.333190         2.526185         0.506416
 H         1.109250         0.722577         0.588366
 H         0.147658         2.434383        -1.135512
 H        -0.546822         1.050009        -2.200401
 H        -3.823176         3.305451        -1.528174
 H        -2.639102         2.975216        -2.948268
 H        -3.608605         1.759815         0.043234
 H        -2.293890        -0.514448         0.651610
 H        -1.698501        -0.744428        -0.888267
 H        -0.306478         3.153582         0.687207
 H        -2.092273         2.655955         1.350551
