19
Iteration:    44charge 0 multiplicity 1
 O         0.216398         0.400609         0.851855
 C        -0.713245         1.042523         0.127084
 C        -0.561045         1.714443        -1.264836
 C        -1.952516         2.298278        -0.896743
 C        -3.068159         2.751084        -1.844195
 O        -3.492031         1.277415        -2.011856
 C        -2.810235         1.017102        -0.685243
 C        -1.838535        -0.011463        -0.200585
 C        -1.397637         2.430205         0.518303
 H         1.042833         0.996709         0.749252
 H         0.180102         2.528256        -1.202688
 H        -0.380920         1.148714        -2.168952
 H        -3.919243         3.304791        -1.360440
 H        -2.911749         3.223179        -2.825104
 H        -3.657582         1.154522        -0.041893
 H        -2.168042        -0.546270         0.708612
 H        -1.476162        -0.769336        -0.912419
 H        -0.662808         3.196149         0.552980
 H        -2.160261         2.594919         1.239978
