19
Iteration:  3735charge 0 multiplicity 1
 O         0.400693         0.557650         0.929968
 C        -0.696670         0.976225         0.090741
 C        -0.577353         1.470890        -1.317798
 C        -1.922468         2.321434        -0.943314
 C        -2.974394         2.674777        -2.145896
 O        -3.532174         1.317421        -1.915033
 C        -2.930410         1.183176        -0.643923
 C        -2.039928         0.063989        -0.045074
 C        -1.389288         2.386961         0.579644
 H         1.173228         0.506286         0.279059
 H         0.229381         2.175092        -1.473308
 H        -0.523372         0.804835        -2.208611
 H        -3.650425         3.506263        -1.929906
 H        -2.524408         2.878177        -3.113028
 H        -3.673846         1.395539         0.127433
 H        -2.461991        -0.391614         1.001645
 H        -1.899338        -0.776157        -0.775281
 H        -0.572158         3.089018         0.832306
 H        -2.245292         2.479229         1.359988
