19
Iteration:  1793
 O         0.279877         0.465416         0.739542
 C        -0.788730         1.085722         0.119466
 C        -0.639957         1.545033        -1.337667
 C        -1.947919         2.289062        -0.840895
 C        -2.939656         2.666759        -1.939493
 O        -3.366071         1.187463        -2.029923
 C        -2.935573         1.173381        -0.616633
 C        -2.017097         0.140527        -0.001183
 C        -1.255865         2.481325         0.578871
 H         0.444360        -0.462569         0.427958
 H         0.088021         2.345138        -1.471955
 H        -0.728323         0.901142        -2.185311
 H        -3.918717         3.019394        -1.592238
 H        -2.708117         3.080817        -2.932308
 H        -3.844540         1.526947         0.094424
 H        -2.215833        -0.390485         0.836745
 H        -1.869832        -0.492046        -0.909111
 H        -0.360257         3.282339         0.632751
 H        -1.821911         2.756174         1.421258
