19
Iteration:  2127
 O         0.341166         0.452581         0.694656
 C        -0.749121         1.086897         0.147968
 C        -0.656112         1.525299        -1.335140
 C        -1.952177         2.244360        -0.896629
 C        -3.022836         2.648618        -1.868097
 O        -3.368427         1.273845        -2.119438
 C        -2.961820         1.093409        -0.575722
 C        -2.007534         0.142647         0.063411
 C        -1.239428         2.512488         0.462114
 H         0.102204        -0.109905         1.391038
 H         0.221384         2.106389        -1.449113
 H        -0.543444         0.654657        -1.945089
 H        -3.890722         3.288795        -1.361766
 H        -2.848846         3.282180        -2.730344
 H        -3.818429         1.583973        -0.025497
 H        -2.400485        -0.194486         1.024407
 H        -1.819334        -0.629960        -0.712858
 H        -0.332624         3.227899         0.319186
 H        -1.774965         2.716207         1.523379
