19
Iteration:  1741charge 0 multiplicity 1
 O         0.410101         0.622957         0.850981
 C        -0.730990         1.078819         0.074744
 C        -0.673398         1.476041        -1.346445
 C        -1.971082         2.204612        -0.863875
 C        -2.890480         2.731966        -1.879350
 O        -3.509320         1.377278        -2.105984
 C        -2.964384         1.072390        -0.648258
 C        -1.997517         0.063130        -0.025752
 C        -1.265358         2.357274         0.491419
 H         0.249952        -0.318764         1.153135
 H         0.195319         2.087829        -1.369473
 H        -0.794153         0.786419        -2.134198
 H        -3.636194         3.404249        -1.452907
 H        -2.709883         3.064638        -2.906409
 H        -3.720736         1.311621        -0.004783
 H        -2.264225        -0.268810         1.005646
 H        -1.885895        -0.877552        -0.569548
 H        -0.558050         3.163390         0.622346
 H        -1.980961         2.437685         1.323225
