19
Iteration:  3202charge 0 multiplicity 1
 O         0.225812         0.312693         0.787738
 C        -0.743265         1.025644         0.123902
 C        -0.557458         1.706100        -1.299929
 C        -1.933744         2.298187        -0.895590
 C        -3.012045         2.732254        -1.981672
 O        -3.433926         1.200157        -1.972987
 C        -2.872284         1.120638        -0.644254
 C        -1.986961         0.052260        -0.059454
 C        -1.316940         2.517052         0.494923
 H         0.874913         0.979458         0.914921
 H         0.199374         2.468090        -1.309885
 H        -0.472844         1.083848        -2.148391
 H        -3.925322         3.358880        -1.615263
 H        -2.519182         3.042895        -2.983415
 H        -3.733974         1.306601         0.068980
 H        -2.375188        -0.324333         0.980016
 H        -1.736618        -0.842426        -0.676371
 H        -0.576884         3.205082         0.711025
 H        -1.950806         2.673459         1.387446
