19
Iteration:  1414
 O         0.374045         0.389313         0.699624
 C        -0.712491         0.998405         0.147933
 C        -0.590765         1.614053        -1.249407
 C        -1.949344         2.333686        -0.861215
 C        -2.996785         2.668449        -1.938208
 O        -3.392931         1.242477        -2.040640
 C        -2.917832         1.129971        -0.686231
 C        -1.952903         0.068154        -0.113046
 C        -1.469441         2.519259         0.545604
 H         0.196411         0.307785         1.699866
 H         0.067317         2.521696        -1.020170
 H        -0.404874         1.051159        -2.214273
 H        -3.769726         3.237013        -1.384602
 H        -2.659761         3.225890        -2.843187
 H        -3.728225         1.407971         0.112029
 H        -2.181720        -0.509295         0.689768
 H        -1.654468        -0.540731        -0.897047
 H        -0.909298         3.369371         0.907217
 H        -2.187461         2.424532         1.470984
