19
Iteration:  2157charge 0 multiplicity 1
 O         0.326652         0.373665         0.841178
 C        -0.683110         1.015761         0.075173
 C        -0.669837         1.664443        -1.431294
 C        -1.897084         2.335045        -0.908343
 C        -3.094898         2.690779        -2.013043
 O        -3.447071         1.271051        -1.945331
 C        -2.831594         1.137360        -0.594960
 C        -1.963450         0.036220        -0.016999
 C        -1.273680         2.525620         0.524792
 H        -0.147377        -0.007573         1.656530
 H         0.320715         2.106082        -1.695918
 H        -0.823606         0.851500        -2.230284
 H        -3.919501         3.305647        -1.776905
 H        -2.874832         3.012112        -3.097497
 H        -3.529521         1.579543         0.203771
 H        -2.469057        -0.316080         0.960060
 H        -1.825682        -0.836541        -0.621997
 H        -0.561139         3.218987         0.459619
 H        -1.886315         2.503680         1.407009
