19
Iteration:  2032charge 0 multiplicity 1
 O         0.398455         0.339695         0.880646
 C        -0.730658         0.994871         0.109995
 C        -0.634847         1.518813        -1.386589
 C        -1.945744         2.301854        -1.001693
 C        -3.072463         2.729911        -1.918274
 O        -3.437391         1.262189        -1.934033
 C        -2.853251         1.163592        -0.592192
 C        -1.973057         0.055503        -0.068621
 C        -1.316627         2.655609         0.404714
 H        -0.058500        -0.079532         1.661450
 H         0.338167         2.138918        -1.367958
 H        -0.743070         0.822229        -2.255790
 H        -3.919633         3.232123        -1.419607
 H        -2.940099         3.160017        -2.905367
 H        -3.696210         1.399215         0.229306
 H        -2.374878        -0.319756         0.837809
 H        -1.673250        -0.654517        -0.917951
 H        -0.491584         3.422784         0.650301
 H        -2.104195         2.797922         0.994800
