19
Iteration:  4920charge 0 multiplicity 1
 O         0.411006         0.459397         0.858083
 C        -0.777882         1.047516         0.134454
 C        -0.616022         1.688171        -1.249742
 C        -2.025963         2.194569        -0.814187
 C        -2.938546         2.726692        -2.086175
 O        -3.497543         1.356352        -2.106406
 C        -2.905139         1.057072        -0.648898
 C        -1.911775        -0.038134        -0.118070
 C        -1.422561         2.395953         0.651566
 H         1.112222         1.111140         0.843028
 H         0.214277         2.426054        -1.319095
 H        -0.743128         1.057342        -2.158092
 H        -3.676368         3.524260        -1.717636
 H        -2.351274         3.135363        -2.939910
 H        -3.846661         1.141036        -0.113741
 H        -2.203712        -0.401704         0.790876
 H        -1.598384        -0.902616        -0.744844
 H        -0.731999         3.249447         0.710208
 H        -2.233736         2.334874         1.418189
