19
Iteration:  3162
 O         0.435733         0.596991         0.768578
 C        -0.760262         1.023600         0.107230
 C        -0.696519         1.372492        -1.334315
 C        -2.058078         2.213736        -0.798501
 C        -2.813887         2.821220        -1.951314
 O        -3.390824         1.339782        -2.115087
 C        -3.042731         1.113154        -0.634858
 C        -2.054639         0.038031        -0.014772
 C        -1.361265         2.379813         0.628965
 H         1.273773         1.090063         0.465145
 H         0.033140         2.185936        -1.645745
 H        -0.580041         0.561845        -2.151068
 H        -3.708243         3.341420        -1.754646
 H        -2.180263         3.148606        -2.692774
 H        -3.897982         1.360431         0.061161
 H        -2.471483        -0.260156         0.889618
 H        -1.707440        -0.886282        -0.579284
 H        -0.581711         3.258328         0.695315
 H        -2.066983         2.262240         1.449168
