19
Iteration:  1625charge 0 multiplicity 1
 O         0.413575         0.640457         0.680514
 C        -0.834678         0.975742         0.173013
 C        -0.678576         1.413733        -1.301139
 C        -1.958181         2.229437        -0.794089
 C        -2.944247         2.735995        -1.915220
 O        -3.353880         1.326478        -2.113750
 C        -2.983675         1.113876        -0.694584
 C        -2.038137         0.096640        -0.011523
 C        -1.258911         2.390011         0.535240
 H         0.222095         0.166108         1.487881
 H         0.131487         2.190976        -1.340169
 H        -0.752770         0.577540        -2.091545
 H        -3.685152         3.401232        -1.404387
 H        -2.695360         3.249947        -2.862140
 H        -3.839058         1.391232        -0.025431
 H        -2.421433        -0.336126         0.847837
 H        -1.768149        -0.755110        -0.568806
 H        -0.588267         3.220407         0.662019
 H        -1.809413         2.556223         1.536228
