19
Iteration:  1979
 O         0.487292         0.567733         0.866930
 C        -0.715830         0.929038         0.088836
 C        -0.704998         1.534074        -1.339031
 C        -2.034883         2.287219        -0.843897
 C        -2.899034         2.689544        -2.026830
 O        -3.487223         1.346080        -1.984313
 C        -2.970668         1.207100        -0.639427
 C        -2.047542         0.004031         0.042106
 C        -1.306623         2.407625         0.472441
 H         0.994142        -0.106555         0.323926
 H         0.202683         2.215601        -1.575984
 H        -0.986542         0.777128        -2.107072
 H        -3.719328         3.338147        -1.813363
 H        -2.414107         2.805688        -3.017556
 H        -3.807158         1.522109         0.004462
 H        -2.437959        -0.188308         1.052593
 H        -1.975673        -0.897230        -0.643496
 H        -0.450775         3.117396         0.539208
 H        -1.865346         2.691971         1.295176
