19
Iteration:  4463
 O         0.468460         0.592960         0.822645
 C        -0.732744         0.959278         0.116874
 C        -0.659122         1.609835        -1.256889
 C        -1.927246         2.185041        -0.828900
 C        -2.950026         2.745921        -1.940227
 O        -3.388772         1.309985        -2.037914
 C        -2.933625         1.075909        -0.757277
 C        -2.112902        -0.019382        -0.148053
 C        -1.457833         2.389270         0.591024
 H         0.929828         1.400948         0.943486
 H         0.186640         2.210081        -1.017751
 H        -0.584817         0.933735        -2.178263
 H        -3.663730         3.454300        -1.506781
 H        -2.374283         3.115645        -2.752245
 H        -3.685815         1.484817        -0.093069
 H        -2.484859        -0.478201         0.651726
 H        -1.790214        -0.784996        -0.845271
 H        -0.853996         3.302775         0.831917
 H        -2.283473         2.152985         1.311553
