19
Iteration:  4066charge 0 multiplicity 1
 O         0.355096         0.560752         0.876813
 C        -0.712784         1.054617         0.084328
 C        -0.614904         1.515083        -1.342229
 C        -2.010462         2.289338        -0.854807
 C        -3.018721         2.717009        -1.853677
 O        -3.424780         1.253277        -2.053862
 C        -2.879074         1.119705        -0.644070
 C        -1.918999         0.006679        -0.127472
 C        -1.323614         2.481002         0.420516
 H        -0.121916         0.036459         1.492167
 H         0.233161         2.191339        -1.329117
 H        -0.819963         0.859165        -2.135888
 H        -3.908380         3.249216        -1.249971
 H        -2.604306         3.163149        -2.838215
 H        -3.763902         1.260927         0.096989
 H        -2.376916        -0.491154         0.716286
 H        -1.705230        -0.638762        -0.875524
 H        -0.557109         3.231033         0.726311
 H        -2.123676         2.511338         1.255265
