19
Iteration:  4355
 O         0.408549         0.441685         0.784394
 C        -0.701845         0.999670         0.152193
 C        -0.623279         1.632034        -1.254000
 C        -2.002256         2.296629        -0.835699
 C        -2.931230         2.666047        -2.046520
 O        -3.446548         1.321844        -2.084998
 C        -2.960657         1.110367        -0.656838
 C        -1.953179         0.060176        -0.052628
 C        -1.468609         2.377464         0.608707
 H         1.085088         1.113098         0.766050
 H         0.133947         2.402487        -1.266597
 H        -0.521895         1.082652        -2.261277
 H        -3.631578         3.441200        -1.695941
 H        -2.509472         3.046418        -2.929552
 H        -3.907292         1.249210        -0.141415
 H        -2.313948        -0.334735         0.879569
 H        -1.575601        -0.769523        -0.704074
 H        -0.851643         3.285285         0.982867
 H        -2.222440         2.147344         1.417925
