19
Iteration:  2146
 O         0.369220         0.332986         0.845926
 C        -0.654081         1.004746         0.095505
 C        -0.650603         1.574552        -1.382657
 C        -1.983549         2.339495        -0.860676
 C        -3.134819         2.727745        -1.960548
 O        -3.375194         1.223104        -1.965428
 C        -2.872019         1.160123        -0.686961
 C        -1.994892         0.084631        -0.004975
 C        -1.248596         2.554129         0.422068
 H        -0.167107        -0.069893         1.535482
 H         0.205522         2.297910        -1.491744
 H        -0.982305         1.030352        -2.327359
 H        -3.879390         3.246900        -1.387975
 H        -2.831160         3.211972        -2.942281
 H        -3.805197         1.430200         0.028466
 H        -2.356854        -0.069918         1.077079
 H        -1.723451        -0.817360        -0.502173
 H        -0.536726         3.245899         0.488837
 H        -1.967841         2.839141         1.191389
