19
Iteration:  2334
 O         0.440502         0.627973         0.659519
 C        -0.809796         0.962271         0.098225
 C        -0.648636         1.468046        -1.290277
 C        -1.911011         2.258976        -0.912298
 C        -2.882585         2.684857        -2.070906
 O        -3.569703         1.349906        -1.942887
 C        -2.990087         1.209758        -0.621656
 C        -1.997918         0.029352         0.018173
 C        -1.262140         2.377284         0.627202
 H         0.252577         0.237180         1.582146
 H         0.206115         2.216229        -1.442451
 H        -0.711489         0.614040        -2.047449
 H        -3.664720         3.440701        -1.803949
 H        -2.344242         2.877745        -3.090848
 H        -3.718514         1.376848         0.096161
 H        -2.587572        -0.394316         0.831390
 H        -1.653373        -0.802496        -0.704000
 H        -0.374660         2.927476         0.684502
 H        -1.926200         2.576929         1.463874
