19
Iteration:  3720
 O         0.299913         0.463871         0.909752
 C        -0.736327         0.994683         0.124506
 C        -0.583809         1.578737        -1.341656
 C        -1.926763         2.292524        -0.913215
 C        -2.992500         2.628661        -2.017238
 O        -3.461773         1.269746        -2.001118
 C        -2.935887         1.223849        -0.573974
 C        -1.994035         0.101567        -0.056601
 C        -1.306959         2.418095         0.438791
 H         1.177399         0.649423         0.539051
 H         0.292050         2.303811        -1.349176
 H        -0.782818         0.812869        -2.029212
 H        -3.966945         3.295598        -1.768132
 H        -2.575040         2.698451        -3.021869
 H        -3.680455         1.680553         0.045657
 H        -2.295732        -0.187686         0.936443
 H        -1.891853        -0.729788        -0.713451
 H        -0.610163         3.212182         0.729167
 H        -1.978671         2.262095         1.391626
