19
Iteration:  4310
 O         0.347646         0.533481         0.907290
 C        -0.799832         1.013087         0.121134
 C        -0.749741         1.534735        -1.297482
 C        -1.948253         2.328668        -0.819064
 C        -3.034214         2.751504        -1.886450
 O        -3.323034         1.340807        -2.118280
 C        -2.899389         1.036799        -0.717054
 C        -1.939779        -0.074430        -0.094196
 C        -1.324865         2.445516         0.531347
 H         1.101777         1.139979         0.772764
 H         0.074899         2.166407        -1.564261
 H        -0.791817         0.770943        -2.112489
 H        -3.963436         3.227162        -1.546471
 H        -2.735495         3.297521        -2.749122
 H        -3.756233         1.313418        -0.115992
 H        -2.416990        -0.513064         0.724672
 H        -1.716717        -0.805321        -0.871563
 H        -0.415237         3.125563         0.586500
 H        -2.033844         2.451858         1.418341
