19
Iteration:   214
 O         0.453944         0.601265         0.876702
 C        -0.753915         1.021952         0.143398
 C        -0.529473         1.700750        -1.206915
 C        -1.996173         2.265062        -0.829991
 C        -3.008740         2.768083        -1.914297
 O        -3.583641         1.379555        -2.087267
 C        -2.890207         1.011677        -0.774022
 C        -1.818413        -0.052912        -0.240540
 C        -1.512465         2.287146         0.651144
 H         0.693153        -0.334640         0.667768
 H         0.314684         2.470904        -1.351992
 H        -0.584342         1.210969        -2.211525
 H        -3.801617         3.464262        -1.618429
 H        -2.485279         3.122774        -2.808373
 H        -3.742129         1.145994        -0.091183
 H        -2.211405        -0.617815         0.632680
 H        -1.489030        -0.696087        -1.041921
 H        -0.753883         3.070189         1.024701
 H        -2.368403         2.053475         1.446600
