19
Iteration:   275
 O         0.395632         0.413938         0.707219
 C        -0.739125         1.071337         0.208816
 C        -0.652445         1.680084        -1.170578
 C        -2.119306         2.283772        -0.776971
 C        -3.085362         2.740638        -1.883030
 O        -3.285623         1.328931        -2.147271
 C        -2.881911         1.031506        -0.789242
 C        -1.804980         0.050808        -0.161328
 C        -1.460413         2.432165         0.627620
 H        -0.053566        -0.372752         1.187722
 H         0.142112         2.454358        -1.238477
 H        -0.763848         1.278918        -2.201541
 H        -3.943556         3.228458        -1.412620
 H        -2.867886         3.394075        -2.843866
 H        -3.733370         0.887535        -0.100203
 H        -2.083840        -0.540356         0.740123
 H        -1.408174        -0.801591        -0.770856
 H        -0.779097         3.293120         0.680304
 H        -1.951737         2.406944         1.551372
