19
Iteration:   161charge 0 multiplicity 1
 O         0.282306         0.477336         0.772213
 C        -0.750487         1.055186         0.072888
 C        -0.689646         1.756412        -1.234013
 C        -1.996487         2.325883        -0.779632
 C        -3.087651         2.664279        -1.929534
 O        -3.295096         1.249828        -2.123212
 C        -2.874399         1.117084        -0.724723
 C        -1.934856         0.001937        -0.215749
 C        -1.315536         2.285484         0.775100
 H         1.111709         1.014268         0.735590
 H         0.025272         2.605392        -1.204427
 H        -0.527474         1.353963        -2.207660
 H        -3.939741         3.162608        -1.381773
 H        -2.878174         3.195204        -2.802099
 H        -3.790253         1.244459        -0.079878
 H        -2.320622        -0.570253         0.678270
 H        -1.711951        -0.755730        -1.002673
 H        -0.520726         3.079860         0.853760
 H        -2.067601         2.149712         1.673028
