19
Iteration:  2355
 O         0.457071         0.471408         0.758071
 C        -0.707249         1.032800         0.153726
 C        -0.655378         1.451161        -1.285924
 C        -1.924916         2.245093        -0.889772
 C        -2.920549         2.711979        -1.917601
 O        -3.526686         1.328065        -1.977428
 C        -2.966005         1.147627        -0.585708
 C        -2.058483         0.064100        -0.103510
 C        -1.310510         2.527453         0.423441
 H         0.361438         0.483533         1.712099
 H         0.212668         2.191240        -1.464266
 H        -0.780707         0.653827        -2.110221
 H        -3.679158         3.373470        -1.564684
 H        -2.547734         2.763697        -2.995124
 H        -3.689753         1.479230         0.175851
 H        -2.496588        -0.545124         0.720419
 H        -1.796335        -0.632047        -0.963955
 H        -0.598631         3.272392         0.388994
 H        -1.965536         2.601922         1.295419
