19
Iteration:  3423
 O         0.387470         0.525405         0.913879
 C        -0.747085         1.011522         0.123250
 C        -0.732429         1.558765        -1.365938
 C        -1.958945         2.229113        -0.860634
 C        -2.939450         2.768843        -1.998355
 O        -3.490912         1.390842        -2.015724
 C        -2.948046         1.048566        -0.741537
 C        -1.873874        -0.003639        -0.093558
 C        -1.344322         2.406164         0.559559
 H         0.628033         1.122713         1.586341
 H         0.132552         2.092768        -1.601626
 H        -0.914307         0.671451        -1.982695
 H        -3.623731         3.480886        -1.605595
 H        -2.571274         3.156976        -2.934870
 H        -3.849658         1.058573        -0.036004
 H        -2.400718        -0.353380         0.783248
 H        -1.351891        -0.933057        -0.669938
 H        -0.460981         3.096832         0.487663
 H        -2.018768         2.311816         1.350635
