19
Iteration:  2036
 O         0.391677         0.336380         0.855113
 C        -0.704267         0.980873         0.144751
 C        -0.649870         1.549705        -1.375382
 C        -1.959541         2.314220        -0.969675
 C        -3.071264         2.698076        -1.954152
 O        -3.446067         1.272866        -1.916580
 C        -2.867164         1.191352        -0.627156
 C        -1.964145         0.019387        -0.054049
 C        -1.307970         2.669497         0.395729
 H         0.063495         0.030454         1.746500
 H         0.290550         2.124899        -1.363303
 H        -0.578076         0.855654        -2.263121
 H        -3.832207         3.373075        -1.513821
 H        -2.951439         3.173201        -2.985338
 H        -3.604216         1.489629         0.187599
 H        -2.409438        -0.547980         0.852431
 H        -1.730067        -0.670892        -0.840424
 H        -0.446215         3.257084         0.562737
 H        -2.249239         2.682184         1.100363
