19
Iteration:  4826
 O         0.389544         0.544821         0.822786
 C        -0.758329         1.001936         0.139204
 C        -0.670271         1.583173        -1.276514
 C        -2.070667         2.236503        -0.808552
 C        -2.875303         2.738450        -1.932027
 O        -3.410374         1.406741        -2.135322
 C        -2.947179         0.976771        -0.770024
 C        -1.894964         0.041699        -0.023507
 C        -1.464002         2.323527         0.573750
 H         0.999661         1.291729         0.860791
 H         0.158447         2.373157        -1.326877
 H        -0.764423         1.106227        -2.256066
 H        -3.667182         3.497733        -1.670313
 H        -2.382148         2.959480        -2.920621
 H        -3.636729         1.021583         0.154312
 H        -2.420270        -0.248229         1.013862
 H        -1.485905        -0.874676        -0.487452
 H        -0.801820         3.238019         0.621465
 H        -2.114406         2.177468         1.401389
