19
Iteration:  2801
 O         0.554613         0.517490         0.713029
 C        -0.760871         0.966648         0.120912
 C        -0.746270         1.553800        -1.318203
 C        -2.008444         2.310769        -0.856114
 C        -2.888625         2.660678        -2.050151
 O        -3.463088         1.346091        -2.051122
 C        -2.990865         1.172323        -0.594536
 C        -1.995220         0.070732         0.015145
 C        -1.341676         2.415646         0.584687
 H         0.268070        -0.253080         1.323518
 H         0.134505         2.190151        -1.434675
 H        -0.882080         0.688691        -1.953608
 H        -3.724405         3.424460        -1.964803
 H        -2.441996         2.802062        -3.022741
 H        -3.742061         1.443570         0.075619
 H        -2.316982        -0.100078         1.124053
 H        -1.834904        -0.835582        -0.635590
 H        -0.648243         3.164707         0.902955
 H        -2.099359         2.452528         1.388468
