19
Iteration:  1555
 O         0.207480         0.346376         0.844008
 C        -0.774503         0.985260         0.107097
 C        -0.601911         1.672766        -1.296497
 C        -1.930874         2.346394        -0.901880
 C        -3.007302         2.668689        -1.976052
 O        -3.440100         1.198662        -1.952065
 C        -2.858440         1.154487        -0.638557
 C        -1.938892         0.059502        -0.163341
 C        -1.304776         2.515242         0.562165
 H         1.027794         0.895790         0.698959
 H         0.222404         2.382031        -1.020951
 H        -0.505137         1.141345        -2.264554
 H        -3.864621         3.306517        -1.726490
 H        -2.620797         2.980178        -2.965825
 H        -3.739125         1.679223        -0.025654
 H        -2.342216        -0.580933         0.749898
 H        -1.660415        -0.742516        -0.946409
 H        -0.519143         3.223159         0.725331
 H        -1.897759         2.749205         1.415569
