19
Iteration:   518
 O         0.296583         0.357543         0.836038
 C        -0.736504         1.064454         0.135726
 C        -0.692223         1.718295        -1.295424
 C        -2.059817         2.291622        -0.740195
 C        -3.074622         2.823073        -1.949714
 O        -3.396900         1.271118        -2.127891
 C        -2.831053         1.083163        -0.687625
 C        -1.810369        -0.010767        -0.160615
 C        -1.393924         2.392310         0.634054
 H         1.093894         0.844614         0.920454
 H         0.059395         2.538859        -1.292804
 H        -0.793694         1.059799        -2.195007
 H        -3.933585         3.268187        -1.655003
 H        -2.591334         3.209992        -2.913870
 H        -3.720479         1.272775        -0.046216
 H        -2.149784        -0.707374         0.682470
 H        -1.381581        -0.696758        -0.925320
 H        -0.527881         3.180716         0.485490
 H        -1.887525         2.214708         1.598298
