19
Iteration:  1792charge 0 multiplicity 1
 O         0.275586         0.463988         0.736054
 C        -0.790204         1.091489         0.118664
 C        -0.642394         1.539954        -1.328527
 C        -1.942197         2.296292        -0.848160
 C        -2.944495         2.661902        -1.929987
 O        -3.364919         1.189621        -2.036712
 C        -2.935392         1.174294        -0.620392
 C        -2.010066         0.142986         0.000305
 C        -1.250991         2.483303         0.576877
 H         0.453542        -0.442103         0.479270
 H         0.084953         2.363182        -1.482450
 H        -0.760027         0.872790        -2.183545
 H        -3.929452         3.015074        -1.598790
 H        -2.731163         3.108713        -2.900037
 H        -3.830520         1.511936         0.073791
 H        -2.238121        -0.440943         0.847783
 H        -1.876823        -0.543080        -0.881008
 H        -0.360350         3.273604         0.636400
 H        -1.805311         2.735862         1.418704
