19
Iteration:   242charge 0 multiplicity 1
 O         0.331908         0.589339         0.869764
 C        -0.790542         0.983910         0.027989
 C        -0.553746         1.799594        -1.305535
 C        -1.990603         2.313429        -0.798798
 C        -3.018789         2.718241        -1.871597
 O        -3.346528         1.276970        -2.031477
 C        -2.872972         1.054731        -0.690037
 C        -1.923341        -0.076050        -0.287354
 C        -1.438779         2.323613         0.634297
 H         0.305936        -0.278121         1.213510
 H         0.141296         2.585221        -1.082091
 H        -0.810977         1.496797        -2.332023
 H        -3.869199         3.188574        -1.359806
 H        -2.733081         3.262503        -2.839624
 H        -3.746255         1.290437        -0.059582
 H        -2.245688        -0.622884         0.599854
 H        -1.729646        -0.702141        -1.185142
 H        -0.642794         3.008288         0.872273
 H        -1.978512         2.100231         1.473187
