19
Iteration:   740charge 0 multiplicity 1
 O         0.303960         0.471997         0.765021
 C        -0.764875         1.019933         0.064994
 C        -0.611049         1.650745        -1.294690
 C        -1.920598         2.418606        -0.863700
 C        -3.066827         2.594120        -1.858499
 O        -3.392265         1.277031        -2.007125
 C        -2.797054         1.143581        -0.626041
 C        -1.978905        -0.020084        -0.186187
 C        -1.359353         2.410229         0.531458
 H         0.109727         0.632115         1.682178
 H         0.284098         2.372186        -1.413193
 H        -0.549953         0.873603        -2.094221
 H        -4.000066         3.252266        -1.515581
 H        -2.615185         3.145885        -2.768126
 H        -3.671602         1.325792         0.008650
 H        -2.328657        -0.455577         0.732109
 H        -1.806570        -0.793987        -0.869380
 H        -0.484416         3.043449         0.689081
 H        -2.150467         2.607242         1.429585
