19
Iteration:  2739
 O         0.355999         0.345065         0.813107
 C        -0.781063         1.024697         0.099905
 C        -0.632666         1.558759        -1.359851
 C        -1.933532         2.278516        -0.951663
 C        -3.068017         2.702443        -1.913570
 O        -3.436462         1.266763        -1.975212
 C        -2.883360         1.187101        -0.655627
 C        -1.963420         0.078957        -0.065436
 C        -1.293976         2.525561         0.514665
 H         0.347886         0.686266         1.777223
 H         0.263572         2.091218        -1.579280
 H        -0.610592         0.754380        -2.061245
 H        -3.805990         3.337161        -1.436330
 H        -2.757696         3.168509        -2.925449
 H        -3.652638         1.588639         0.182536
 H        -2.253257        -0.392738         0.870842
 H        -1.661289        -0.706149        -0.811603
 H        -0.542851         3.441034         0.420154
 H        -1.981080         2.557273         1.353049
