19
Iteration:  2829
 O         0.396229         0.491466         0.603291
 C        -0.817290         1.023081         0.114862
 C        -0.621196         1.639054        -1.235301
 C        -1.952051         2.283969        -0.858133
 C        -2.851876         2.624771        -2.025806
 O        -3.479801         1.266964        -1.955736
 C        -2.977475         1.147945        -0.577166
 C        -2.028088         0.042822        -0.021058
 C        -1.310390         2.500290         0.537020
 H         0.193678        -0.219265         1.265926
 H         0.239085         2.360888        -1.274174
 H        -0.382116         0.800970        -1.957622
 H        -3.665210         3.351224        -2.012703
 H        -2.359129         2.758895        -3.031302
 H        -3.761912         1.393028         0.283505
 H        -2.288506        -0.334450         0.920171
 H        -1.810478        -0.728581        -0.739304
 H        -0.586712         3.268414         0.894291
 H        -2.155474         2.668721         1.292821
