19
Iteration:  4952
 O         0.391722         0.587735         0.829839
 C        -0.831435         0.974887         0.144185
 C        -0.658626         1.586339        -1.269890
 C        -1.979402         2.204951        -0.834740
 C        -2.897838         2.754256        -1.946322
 O        -3.372916         1.326560        -2.074156
 C        -2.908237         1.086696        -0.645208
 C        -1.997137        -0.019052        -0.190191
 C        -1.437581         2.371222         0.594529
 H         1.086126         1.328349         0.760547
 H         0.242855         2.217450        -1.416612
 H        -0.766693         0.856338        -2.120157
 H        -3.837084         3.328740        -1.553811
 H        -2.411183         3.190858        -2.858199
 H        -3.733292         1.071040         0.115710
 H        -2.336345        -0.344542         0.679015
 H        -1.697542        -0.795890        -0.899786
 H        -0.715534         3.176764         0.772116
 H        -2.223224         2.422859         1.424206
