19
Iteration:  1518charge 0 multiplicity 1
 O         0.293610         0.544628         0.933673
 C        -0.739115         1.046047         0.121904
 C        -0.621017         1.504252        -1.341188
 C        -1.995661         2.210303        -0.836142
 C        -2.988154         2.758269        -1.885355
 O        -3.484752         1.347542        -2.106688
 C        -2.940019         1.094886        -0.750677
 C        -1.888353         0.041330        -0.101233
 C        -1.324208         2.427057         0.547159
 H         0.918047         0.123768         0.395019
 H         0.202500         2.154957        -1.525047
 H        -0.538952         0.744591        -2.095147
 H        -3.733556         3.421991        -1.388027
 H        -2.595912         3.212527        -2.800829
 H        -3.631232         1.360013         0.192094
 H        -2.270633        -0.375288         0.841299
 H        -1.479178        -0.763343        -0.763457
 H        -0.448618         3.177857         0.707109
 H        -2.028614         2.282253         1.374739
