19
Iteration:  3649charge 0 multiplicity 1
 O         0.359950         0.558628         0.743892
 C        -0.748942         0.987694         0.056007
 C        -0.657260         1.510317        -1.353010
 C        -1.909822         2.294301        -0.879217
 C        -2.938220         2.666824        -2.033735
 O        -3.422800         1.277435        -2.032603
 C        -2.970176         1.148321        -0.669261
 C        -2.129809         0.065712         0.071991
 C        -1.242823         2.374791         0.598598
 H         0.854217         1.151686         1.350523
 H         0.202560         2.127169        -1.351113
 H        -0.896068         0.761480        -2.158043
 H        -3.691495         3.347391        -1.669452
 H        -2.376174         3.002730        -2.952050
 H        -3.861209         1.471594         0.004764
 H        -2.432836         0.101116         1.121604
 H        -1.780100        -0.934765        -0.172891
 H        -0.489078         3.136370         0.782787
 H        -1.974517         2.472496         1.378348
