19
Iteration:  4454charge 0 multiplicity 1
 O         0.417215         0.646998         0.806349
 C        -0.746170         0.946913         0.154551
 C        -0.604785         1.521227        -1.242144
 C        -1.992937         2.230765        -0.872452
 C        -2.895620         2.784539        -1.851381
 O        -3.403973         1.337101        -2.108622
 C        -2.921561         1.119199        -0.690331
 C        -2.051625        -0.053581        -0.122183
 C        -1.462732         2.293097         0.531470
 H         0.939419         1.415782         0.902846
 H         0.148871         2.348603        -1.202671
 H        -0.397263         1.038880        -2.253162
 H        -3.805985         3.265335        -1.580206
 H        -2.621528         3.100153        -2.800484
 H        -3.761520         1.534832        -0.045022
 H        -2.449233        -0.432138         0.817276
 H        -1.744559        -0.875212        -0.765213
 H        -0.793295         3.248162         0.751333
 H        -2.233521         2.095399         1.340904
