19
Iteration:  1300
 O         0.373034         0.384523         0.701865
 C        -0.679450         1.040765         0.073892
 C        -0.632121         1.721105        -1.228104
 C        -2.011807         2.329618        -0.834963
 C        -2.973727         2.676627        -1.923319
 O        -3.326686         1.158997        -2.050882
 C        -2.971477         1.135551        -0.609808
 C        -2.013210         0.120794        -0.149771
 C        -1.377946         2.442783         0.571561
 H         0.228586         0.211107         1.717140
 H         0.068468         2.550622        -1.164644
 H        -0.483815         1.196611        -2.198500
 H        -3.907705         3.240879        -1.780805
 H        -2.577019         2.987221        -2.897671
 H        -3.862121         1.468304         0.034564
 H        -2.322504        -0.142614         0.878877
 H        -1.923614        -0.725979        -0.933833
 H        -0.611948         3.185767         0.962464
 H        -2.039395         2.312796         1.385836
