19
Iteration:   947charge 0 multiplicity 1
 O         0.373879         0.332533         0.738789
 C        -0.693608         1.076445         0.154199
 C        -0.679695         1.616803        -1.324647
 C        -2.018798         2.267617        -0.866915
 C        -3.022313         2.761652        -1.960437
 O        -3.360654         1.244836        -2.071786
 C        -2.966258         1.118472        -0.618315
 C        -1.954566         0.004305        -0.017639
 C        -1.329471         2.539880         0.521041
 H         0.674240         0.691052         1.642613
 H         0.059494         2.461876        -1.583970
 H        -0.707540         0.788551        -2.083704
 H        -3.699178         3.413422        -1.448106
 H        -2.605749         3.194126        -2.896265
 H        -3.768937         1.349270         0.055045
 H        -2.136592        -0.271440         1.062318
 H        -1.891878        -0.803063        -0.861350
 H        -0.704961         3.446711         0.609342
 H        -2.064983         2.454824         1.398611
