19
Iteration:  1121charge 0 multiplicity 1
 O         0.491122         0.574077         0.739348
 C        -0.690603         1.077565         0.122622
 C        -0.733394         1.505315        -1.270110
 C        -2.017018         2.182717        -0.799171
 C        -2.902356         2.706397        -1.873165
 O        -3.371245         1.414122        -2.163765
 C        -2.968046         1.051061        -0.705293
 C        -2.082795         0.004548         0.023086
 C        -1.360614         2.423921         0.484976
 H         0.337960         0.461799         1.710658
 H         0.052561         2.231717        -1.564193
 H        -0.798648         0.791032        -2.081659
 H        -3.764416         3.329660        -1.481966
 H        -2.536482         3.300013        -2.750191
 H        -3.891615         1.175893         0.080098
 H        -2.373773        -0.478683         0.885418
 H        -1.870059        -0.868031        -0.558273
 H        -0.574884         3.135090         0.600518
 H        -2.045790         2.293003         1.365385
