19
Iteration:   976charge 0 multiplicity 1
 O         0.374522         0.495616         0.706158
 C        -0.815156         0.984598         0.170578
 C        -0.654109         1.580335        -1.287120
 C        -1.966402         2.316499        -0.881262
 C        -3.057912         2.783267        -1.865835
 O        -3.373305         1.194145        -2.105321
 C        -2.899761         1.137382        -0.725730
 C        -1.983594         0.041153         0.006653
 C        -1.266296         2.430243         0.503716
 H         0.369623         0.585973         1.630319
 H         0.242462         2.147104        -1.212507
 H        -0.807779         0.916163        -2.157804
 H        -3.881868         3.303552        -1.264979
 H        -2.671658         3.298081        -2.811066
 H        -3.745062         1.527610         0.026798
 H        -2.282693        -0.256800         1.029051
 H        -1.808363        -0.887334        -0.573031
 H        -0.434826         3.230226         0.487089
 H        -1.891258         2.407716         1.389189
