19
Iteration:   669charge 0 multiplicity 1
 O         0.373371         0.567554         0.761841
 C        -0.774873         1.027891         0.110413
 C        -0.626402         1.603488        -1.259187
 C        -2.011889         2.283258        -0.803362
 C        -2.953915         2.743499        -1.901413
 O        -3.363787         1.302378        -2.044119
 C        -2.891557         1.098032        -0.642533
 C        -2.000584        -0.068142        -0.106615
 C        -1.445280         2.371954         0.548150
 H         1.139760         0.648495         0.228427
 H         0.078123         2.381395        -1.468984
 H        -0.549066         0.959551        -2.123446
 H        -3.792368         3.547789        -1.780933
 H        -2.431039         3.017750        -2.888241
 H        -3.781328         1.357502         0.115080
 H        -2.466848        -0.536633         0.829763
 H        -1.758851        -0.805787        -0.948363
 H        -0.695758         3.048725         1.041029
 H        -2.056731         2.337628         1.391999
