19
Iteration:  3613
 O         0.371712         0.427795         0.846870
 C        -0.702451         1.091791         0.193128
 C        -0.652304         1.453233        -1.320282
 C        -1.925039         2.266580        -0.882295
 C        -2.868994         2.645417        -2.066287
 O        -3.550977         1.329501        -1.960158
 C        -2.966539         1.156542        -0.596134
 C        -2.030149         0.027923        -0.115157
 C        -1.335081         2.549921         0.504975
 H         1.130195         1.100081         0.837359
 H         0.126645         2.203057        -1.583763
 H        -0.533544         0.755067        -2.090910
 H        -3.678630         3.260630        -1.918584
 H        -2.552885         2.868098        -3.033022
 H        -3.858170         1.330542         0.170130
 H        -2.237950        -0.477348         0.959594
 H        -1.669662        -0.793742        -0.723164
 H        -0.593470         3.339409         0.481460
 H        -2.117518         2.592439         1.325746
