19
Iteration:  4405charge 0 multiplicity 1
 O         0.231979         0.296958         0.889896
 C        -0.705932         1.052473         0.130037
 C        -0.652902         1.745144        -1.307377
 C        -2.072684         2.256157        -0.847037
 C        -3.003233         2.711413        -1.901100
 O        -3.308553         1.222688        -2.064710
 C        -2.933343         1.045617        -0.642221
 C        -1.893797         0.111046        -0.167123
 C        -1.370697         2.515329         0.533113
 H         1.118601         0.781004         0.969082
 H         0.144581         2.473413        -1.546158
 H        -0.528408         1.043290        -2.107747
 H        -3.912559         3.263344        -1.549606
 H        -2.637608         3.214232        -2.881894
 H        -3.824443         1.323168        -0.094773
 H        -2.003503        -0.488807         0.753455
 H        -1.582049        -0.515952        -0.998792
 H        -0.553821         3.164422         0.525974
 H        -2.024211         2.763795         1.374546
