19
Iteration:  4723
 O         0.359372         0.515246         0.805262
 C        -0.782690         0.978439         0.130661
 C        -0.558905         1.587513        -1.243838
 C        -2.011074         2.313607        -0.856853
 C        -3.031900         2.725989        -1.911797
 O        -3.357898         1.300234        -2.108712
 C        -2.949890         1.086628        -0.734600
 C        -1.948506        -0.016234        -0.090425
 C        -1.426067         2.420621         0.568754
 H         0.870339         1.346379         1.103162
 H         0.237704         2.251318        -1.215506
 H        -0.541406         0.964168        -2.143518
 H        -3.710631         3.400498        -1.480664
 H        -2.548892         3.139677        -2.757807
 H        -3.780761         1.245834        -0.007559
 H        -2.171941        -0.576057         0.782203
 H        -1.696865        -0.857099        -0.884605
 H        -0.702486         3.117038         0.856478
 H        -2.086460         2.353090         1.475814
