19
Iteration:  1713
 O         0.441688         0.539929         0.825939
 C        -0.807301         0.983293         0.165978
 C        -0.678020         1.579811        -1.267734
 C        -1.940758         2.335453        -0.913297
 C        -2.893456         2.703833        -2.039950
 O        -3.543352         1.332583        -1.931893
 C        -2.870829         1.175103        -0.589417
 C        -1.973992        -0.071206        -0.139585
 C        -1.368378         2.455897         0.480691
 H         0.434826        -0.397822         1.016618
 H         0.287540         2.169864        -1.235631
 H        -0.798016         0.814352        -2.130381
 H        -3.622628         3.537959        -1.922271
 H        -2.538282         2.696032        -3.074208
 H        -3.593455         1.549649         0.326026
 H        -2.336213        -0.629506         0.779734
 H        -1.727929        -0.790257        -0.938224
 H        -0.414414         3.123650         0.602738
 H        -2.286438         2.623687         1.137389
