19
Iteration:  3054
 O         0.410719         0.496263         0.838418
 C        -0.751215         1.014900         0.175655
 C        -0.644956         1.516710        -1.339664
 C        -1.929966         2.276843        -0.918705
 C        -2.892257         2.700006        -1.954987
 O        -3.556115         1.341380        -2.010823
 C        -2.990092         1.143459        -0.681500
 C        -1.980653         0.040113        -0.128075
 C        -1.339469         2.383783         0.602260
 H         0.820316         1.036547         1.510430
 H         0.105656         2.353913        -1.513322
 H        -0.713249         0.646227        -2.082768
 H        -3.598380         3.542760        -1.776903
 H        -2.473649         2.900309        -2.962632
 H        -3.673945         1.423514         0.086876
 H        -2.238723        -0.623615         0.594993
 H        -1.659442        -0.525881        -1.032067
 H        -0.541066         3.239775         0.633470
 H        -1.977534         2.286704         1.463844
