19
Iteration:  2965charge 0 multiplicity 1
 O         0.336417         0.336763         0.714962
 C        -0.786472         1.009668         0.096239
 C        -0.684015         1.758470        -1.280011
 C        -1.972755         2.380360        -0.861120
 C        -2.947295         2.606662        -2.030967
 O        -3.405413         1.200961        -2.020017
 C        -2.871035         1.179524        -0.554258
 C        -1.961302         0.076587        -0.033968
 C        -1.300724         2.516270         0.575612
 H        -0.138027        -0.380685         1.091892
 H        -0.061309         2.689900        -1.326171
 H        -0.641218         1.060405        -2.171555
 H        -3.834262         3.282762        -2.013730
 H        -2.455807         2.861112        -2.959548
 H        -3.766190         1.279429         0.115924
 H        -2.250483        -0.162311         0.911553
 H        -1.793133        -0.757825        -0.693202
 H        -0.496320         3.267929         0.694060
 H        -1.785682         2.517460         1.512909
