19
Iteration:  4915
 O         0.377703         0.412548         0.857979
 C        -0.725968         1.074030         0.132790
 C        -0.605241         1.697729        -1.252067
 C        -2.048742         2.247774        -0.829675
 C        -2.955421         2.710210        -2.031867
 O        -3.475984         1.328540        -2.096401
 C        -2.889640         1.022197        -0.644053
 C        -1.912806         0.004509        -0.146705
 C        -1.440991         2.388622         0.600959
 H         1.063576         1.121396         0.811640
 H        -0.017557         2.653349        -1.276290
 H        -0.526730         1.021723        -2.123282
 H        -3.605164         3.580211        -1.766951
 H        -2.383320         3.070080        -2.887238
 H        -3.843840         1.274481        -0.109052
 H        -2.249834        -0.346710         0.943933
 H        -1.671894        -0.924087        -0.648426
 H        -0.588712         3.063702         0.829871
 H        -2.276240         2.473534         1.309082
