19
Iteration:  2133charge 0 multiplicity 1
 O         0.363430         0.383547         0.772117
 C        -0.754131         1.020916         0.113953
 C        -0.673733         1.537803        -1.337781
 C        -1.960141         2.306583        -0.927954
 C        -3.055442         2.677428        -1.826568
 O        -3.367480         1.243957        -2.094392
 C        -2.937628         1.132721        -0.603483
 C        -1.966982         0.179688         0.028553
 C        -1.253530         2.566412         0.441370
 H         0.064949        -0.187323         1.524466
 H         0.117774         2.342868        -1.548613
 H        -0.486001         0.701071        -2.089877
 H        -3.913111         3.160591        -1.455182
 H        -2.917557         3.202127        -2.824382
 H        -3.839939         1.349938         0.032465
 H        -2.395579        -0.157789         1.014884
 H        -1.842863        -0.713628        -0.586795
 H        -0.376303         3.147469         0.307826
 H        -1.735398         2.650727         1.339952
