19
Iteration:  1982charge 0 multiplicity 1
 O         0.464003         0.572745         0.867048
 C        -0.692043         0.919146         0.108941
 C        -0.694999         1.537306        -1.358972
 C        -2.011191         2.323099        -0.847671
 C        -2.928686         2.704118        -2.019850
 O        -3.490409         1.335396        -1.999743
 C        -2.983058         1.192655        -0.634937
 C        -2.037987        -0.026352         0.045924
 C        -1.294030         2.411778         0.449470
 H         0.965229        -0.203622         0.457391
 H         0.135686         2.184208        -1.527930
 H        -0.927962         0.835601        -2.159599
 H        -3.733874         3.434178        -1.766599
 H        -2.459911         2.790619        -3.041074
 H        -3.785614         1.457187        -0.017612
 H        -2.427019        -0.098957         1.081923
 H        -1.974513        -0.846472        -0.601525
 H        -0.420057         3.048752         0.523453
 H        -1.859634         2.727336         1.487087
