19
Iteration:   149
 O         0.399700         0.361269         0.783111
 C        -0.699441         0.979344         0.095280
 C        -0.679273         1.844724        -1.302265
 C        -2.022673         2.383555        -0.754698
 C        -3.157022         2.674692        -1.937468
 O        -3.233520         1.238650        -2.133138
 C        -2.873714         1.113682        -0.705885
 C        -1.990271         0.074364        -0.189395
 C        -1.379498         2.304256         0.698729
 H         0.838800         1.189810         1.201491
 H         0.080893         2.671139        -1.397662
 H        -0.870249         1.171422        -2.143950
 H        -4.149486         3.005166        -1.562048
 H        -2.862501         3.159435        -2.836623
 H        -3.783307         1.315044        -0.069680
 H        -2.358897        -0.273669         0.812622
 H        -1.791593        -0.764632        -0.860573
 H        -0.619470         3.008013         1.234084
 H        -2.123477         2.011459         1.584477
