19
Iteration:  1818
 O         0.393684         0.427500         0.801547
 C        -0.733114         0.993781         0.092803
 C        -0.681362         1.638376        -1.251282
 C        -1.971286         2.375378        -0.878794
 C        -2.894675         2.622390        -2.072332
 O        -3.490644         1.321731        -1.938113
 C        -2.912034         1.171851        -0.602642
 C        -2.020445         0.019557        -0.026527
 C        -1.328810         2.447840         0.496950
 H         0.989072        -0.150220         0.362626
 H         0.010841         2.432165        -1.389291
 H        -0.755064         1.063929        -2.162022
 H        -3.832392         3.220267        -2.085489
 H        -2.321706         2.649941        -3.041174
 H        -3.764627         1.391164         0.200551
 H        -2.353660        -0.151327         1.022447
 H        -1.905253        -0.773669        -0.769977
 H        -0.577827         3.178756         0.756069
 H        -2.051937         2.518585         1.421250
