19
Iteration:  1337charge 0 multiplicity 1
 O         0.394007         0.511765         0.740021
 C        -0.772173         0.989552         0.160777
 C        -0.677089         1.602317        -1.221801
 C        -1.959171         2.337019        -0.892829
 C        -3.026581         2.745736        -1.926473
 O        -3.410042         1.262042        -2.086591
 C        -2.860992         1.053867        -0.710854
 C        -1.917730         0.039185        -0.101226
 C        -1.372219         2.507481         0.592153
 H         0.061437        -0.296292         1.254778
 H         0.167912         2.342092        -1.388469
 H        -0.762880         0.813027        -2.006358
 H        -3.836900         3.341201        -1.501488
 H        -2.469714         3.156908        -2.782019
 H        -3.818999         1.114864         0.043055
 H        -2.333738        -0.349548         0.742134
 H        -1.565728        -0.800972        -0.630144
 H        -0.538794         3.207666         0.885802
 H        -2.222663         2.389233         1.344203
