19
Iteration:  3870charge 0 multiplicity 1
 O         0.433185         0.639259         0.799162
 C        -0.797729         1.011127         0.128870
 C        -0.709260         1.514413        -1.324055
 C        -2.011869         2.307067        -0.866587
 C        -2.832102         2.683164        -2.177119
 O        -3.537153         1.323556        -1.931743
 C        -2.949235         1.147724        -0.588204
 C        -1.922268         0.063234         0.005254
 C        -1.363561         2.334182         0.532728
 H         0.530125        -0.203251         1.239755
 H         0.198079         2.211713        -1.401700
 H        -0.740325         0.849123        -2.219039
 H        -3.468295         3.483602        -2.200209
 H        -2.020724         2.897498        -2.925500
 H        -3.734885         1.248944         0.076040
 H        -2.440473        -0.455855         0.930087
 H        -1.702376        -0.865683        -0.681379
 H        -0.545619         3.066526         0.582606
 H        -1.998943         2.238354         1.414576
