19
Iteration:  4726charge 0 multiplicity 1
 O         0.339575         0.478218         0.814237
 C        -0.735574         1.012679         0.145270
 C        -0.551941         1.618617        -1.249953
 C        -1.989967         2.319093        -0.852892
 C        -3.039055         2.748974        -1.909916
 O        -3.366717         1.260724        -2.113374
 C        -2.965522         1.088859        -0.737536
 C        -1.945239         0.000294        -0.091785
 C        -1.449135         2.417741         0.555148
 H         0.802547         1.258358         1.064476
 H         0.341098         2.248171        -1.251460
 H        -0.650809         0.948214        -2.117780
 H        -3.766013         3.459965        -1.481289
 H        -2.558519         3.222202        -2.789674
 H        -3.803187         1.142062         0.033384
 H        -2.207686        -0.618132         0.823296
 H        -1.597589        -0.798025        -0.826950
 H        -0.649121         3.117082         0.784980
 H        -1.976302         2.312726         1.463038
