19
Iteration:  3792
 O         0.352699         0.520716         0.961378
 C        -0.695049         1.047942         0.112390
 C        -0.743983         1.564578        -1.367608
 C        -1.956210         2.334265        -0.923239
 C        -3.005458         2.678543        -1.932742
 O        -3.409783         1.225870        -2.051799
 C        -2.895107         1.147070        -0.674933
 C        -1.994420         0.098244        -0.001472
 C        -1.253909         2.417983         0.454732
 H         0.321328        -0.423997         0.938820
 H         0.095864         2.256524        -1.578217
 H        -1.051709         0.893667        -2.226598
 H        -3.748824         3.290946        -1.537185
 H        -2.630601         3.108403        -2.928571
 H        -3.753119         1.501803        -0.053981
 H        -2.333728        -0.375428         1.025084
 H        -1.767534        -0.754314        -0.774245
 H        -0.398365         3.162956         0.487319
 H        -1.900120         2.529219         1.315024
