19
Iteration:  1178
 O         0.382554         0.373419         0.737363
 C        -0.731617         1.010085         0.114937
 C        -0.559699         1.701721        -1.261716
 C        -1.971621         2.306506        -0.794651
 C        -2.950026         2.707167        -2.031614
 O        -3.425877         1.180225        -1.973413
 C        -3.003943         1.087458        -0.616872
 C        -1.961220         0.124441        -0.149930
 C        -1.379135         2.543608         0.549808
 H        -0.042760        -0.179860         1.466840
 H         0.142474         2.531008        -1.132893
 H        -0.596979         1.119503        -2.180337
 H        -3.790910         3.358917        -1.718441
 H        -2.477033         2.843410        -3.003601
 H        -3.964769         1.378180         0.022474
 H        -2.160217        -0.411651         0.670990
 H        -1.809329        -0.560431        -0.995454
 H        -0.510406         3.132919         0.687287
 H        -2.018911         2.748242         1.460206
