19
Iteration:  3973charge 0 multiplicity 1
 O         0.408438         0.543723         0.738915
 C        -0.785350         0.976741         0.103396
 C        -0.671891         1.554017        -1.330279
 C        -1.921164         2.321499        -0.816333
 C        -2.949271         2.663352        -2.102877
 O        -3.403298         1.277501        -2.069914
 C        -2.992491         1.150300        -0.542444
 C        -2.038437        -0.031201         0.020823
 C        -1.320452         2.433735         0.602810
 H         0.838575         1.351710         1.184707
 H         0.217902         2.229851        -1.393693
 H        -0.802803         0.806411        -2.188688
 H        -3.752669         3.323970        -1.870175
 H        -2.510932         2.878885        -3.035254
 H        -3.726985         1.501374         0.115442
 H        -2.481906        -0.325536         0.975227
 H        -1.801648        -0.825200        -0.737024
 H        -0.536064         3.206712         0.773085
 H        -1.990246         2.480556         1.469467
