19
Iteration:  4867charge 0 multiplicity 1
 O         0.287187         0.386566         0.849933
 C        -0.791518         1.006023         0.153121
 C        -0.666893         1.674035        -1.272374
 C        -1.977090         2.347823        -0.833193
 C        -3.109311         2.650668        -1.928450
 O        -3.249796         1.245845        -2.024542
 C        -2.880385         1.140909        -0.729353
 C        -1.906943         0.090050        -0.160557
 C        -1.380223         2.464982         0.551497
 H         1.092979         0.898740         0.930766
 H         0.233358         2.269593        -1.206525
 H        -0.762143         0.932785        -2.066990
 H        -4.028018         3.048018        -1.586708
 H        -2.803234         3.206073        -2.840140
 H        -3.890795         1.144993        -0.272822
 H        -2.363720        -0.622831         0.657214
 H        -1.529437        -0.655362        -0.954170
 H        -0.571456         3.245928         0.563112
 H        -2.039348         2.511025         1.426851
