19
Iteration:  2262
 O         0.381819         0.369485         0.775607
 C        -0.751466         0.979835         0.114564
 C        -0.717321         1.568619        -1.379340
 C        -1.948742         2.398853        -0.821824
 C        -3.093553         2.724887        -1.941255
 O        -3.314971         1.180259        -1.980474
 C        -2.862071         1.181843        -0.673573
 C        -2.043902         0.059227        -0.020627
 C        -1.281287         2.558206         0.435471
 H         0.232910         0.103150         1.725788
 H         0.101166         2.233234        -1.365746
 H        -0.910714         0.989449        -2.240394
 H        -3.902819         3.239802        -1.328394
 H        -2.853181         3.067616        -2.943494
 H        -3.763648         1.513383         0.055442
 H        -2.423994        -0.210425         0.951907
 H        -1.890219        -0.829737        -0.616210
 H        -0.193946         3.078183         0.313199
 H        -1.692019         2.950882         1.380440
