19
Iteration:  4833charge 0 multiplicity 1
 O         0.355891         0.528937         0.832638
 C        -0.725502         1.050685         0.130179
 C        -0.691020         1.645434        -1.302772
 C        -2.041689         2.208511        -0.795236
 C        -2.889945         2.705429        -1.946524
 O        -3.414977         1.393998        -2.132595
 C        -2.954727         0.974595        -0.741775
 C        -1.912231         0.020174        -0.003868
 C        -1.410759         2.330422         0.570103
 H         0.933332         1.263193         0.842278
 H         0.166991         2.265482        -1.319640
 H        -0.694315         1.087180        -2.256188
 H        -3.635320         3.367781        -1.590716
 H        -2.298962         3.185372        -2.735040
 H        -3.953869         1.097580        -0.310348
 H        -2.254311        -0.306762         0.990078
 H        -1.515886        -0.867354        -0.610944
 H        -0.747099         3.179477         0.676209
 H        -2.161587         2.329446         1.412451
