19
Iteration:  1282
 O         0.411514         0.449070         0.681077
 C        -0.795580         0.993197         0.142782
 C        -0.694933         1.695149        -1.293720
 C        -2.022823         2.303133        -0.806225
 C        -2.917672         2.700783        -2.018855
 O        -3.389375         1.298216        -2.058866
 C        -2.911573         1.077611        -0.665802
 C        -1.944504         0.024131        -0.027624
 C        -1.395756         2.415232         0.667386
 H         0.280772         0.465408         1.705362
 H         0.137331         2.386866        -1.602077
 H        -0.747511         0.973777        -2.148097
 H        -3.719220         3.419458        -1.810645
 H        -2.385151         3.138136        -2.892848
 H        -3.905568         1.239837        -0.161625
 H        -2.268149        -0.573618         0.795595
 H        -1.466783        -0.642427        -0.706213
 H        -0.604121         3.228678         0.569326
 H        -2.093101         2.488554         1.538157
