19
Iteration:   521
 O         0.291750         0.352141         0.829907
 C        -0.695396         1.070457         0.126669
 C        -0.696982         1.725359        -1.291216
 C        -2.086137         2.307806        -0.761287
 C        -3.033488         2.808191        -1.959183
 O        -3.407352         1.273809        -2.123192
 C        -2.859271         1.096541        -0.672894
 C        -1.801392        -0.031270        -0.167193
 C        -1.397012         2.379201         0.613967
 H         1.131624         0.925657         1.088715
 H         0.097331         2.485977        -1.315325
 H        -0.807627         1.035880        -2.174556
 H        -3.914600         3.387955        -1.555309
 H        -2.561670         3.229444        -2.825933
 H        -3.723655         1.119051         0.052574
 H        -2.143927        -0.531241         0.696932
 H        -1.362977        -0.710224        -0.886293
 H        -0.754185         3.156328         0.567507
 H        -1.893854         2.199614         1.597055
