19
Iteration:  2799
 O         0.545878         0.521325         0.714663
 C        -0.762947         0.968383         0.121040
 C        -0.740028         1.544302        -1.309540
 C        -2.007603         2.318568        -0.875355
 C        -2.905314         2.666173        -2.046522
 O        -3.462483         1.345266        -2.052604
 C        -2.994714         1.166451        -0.600826
 C        -1.991513         0.069515         0.022188
 C        -1.310536         2.411209         0.598142
 H         0.251848        -0.212390         1.313256
 H         0.149068         2.228225        -1.481199
 H        -0.889490         0.621633        -1.938113
 H        -3.769472         3.424659        -1.927156
 H        -2.381435         2.848748        -2.991659
 H        -3.847958         1.427602         0.031864
 H        -2.276056        -0.129544         1.053272
 H        -1.828888        -0.790819        -0.582129
 H        -0.639226         3.154315         0.875365
 H        -2.156958         2.428668         1.359259
