19
Iteration:  4409
 O         0.247846         0.305535         0.902077
 C        -0.698825         1.072265         0.144547
 C        -0.657040         1.728979        -1.313764
 C        -2.069028         2.272619        -0.827632
 C        -3.015521         2.735917        -1.919034
 O        -3.332037         1.220425        -2.075949
 C        -2.900967         1.061525        -0.655751
 C        -1.879520         0.086762        -0.152623
 C        -1.382708         2.492144         0.515433
 H         1.065665         0.753055         0.968524
 H         0.019011         2.552832        -1.592731
 H        -0.595687         0.886344        -2.092853
 H        -3.830688         3.283949        -1.480644
 H        -2.531990         3.258257        -2.689786
 H        -3.867837         1.236684        -0.159032
 H        -2.188503        -0.486358         0.681738
 H        -1.551212        -0.602375        -0.942544
 H        -0.481845         3.220302         0.400129
 H        -2.064736         2.663697         1.421133
