19
Iteration:  1987
 O         0.426580         0.578580         0.860723
 C        -0.688327         0.921195         0.127357
 C        -0.702070         1.526616        -1.372466
 C        -1.956970         2.343544        -0.871585
 C        -2.977434         2.723625        -2.012654
 O        -3.493665         1.318375        -2.020742
 C        -2.978863         1.151859        -0.627024
 C        -2.025918        -0.007603         0.052199
 C        -1.271004         2.430317         0.473085
 H         0.819613        -0.280210         0.654680
 H         0.161641         2.248588        -1.506297
 H        -0.791490         0.892429        -2.286335
 H        -3.691723         3.533098        -1.767991
 H        -2.542888         2.902728        -2.977470
 H        -3.871589         1.379907         0.113492
 H        -2.401153        -0.131977         1.062656
 H        -1.949998        -0.973032        -0.577099
 H        -0.317448         3.017062         0.437511
 H        -1.750343         2.586507         1.406209
