19
Iteration:  2444charge 0 multiplicity 1
 O         0.413298         0.575420         0.581274
 C        -0.825518         1.006124         0.165006
 C        -0.706843         1.485864        -1.281958
 C        -1.942611         2.219514        -0.857803
 C        -2.811661         2.709556        -2.047112
 O        -3.514443         1.338644        -1.964353
 C        -2.973732         1.097003        -0.584579
 C        -1.998940         0.039573         0.027648
 C        -1.277066         2.510130         0.601454
 H         0.297494        -0.117900         1.212661
 H         0.068845         2.310707        -1.529374
 H        -0.796267         0.743465        -2.129162
 H        -3.438620         3.508731        -1.896513
 H        -2.242478         2.682632        -2.993800
 H        -3.896111         1.323100        -0.002059
 H        -2.532916        -0.157811         0.920775
 H        -1.775213        -0.966871        -0.443442
 H        -0.376356         3.119905         0.516475
 H        -1.868295         2.717182         1.420856
