19
Iteration:  3393charge 0 multiplicity 1
 O         0.370986         0.605182         0.838655
 C        -0.772530         0.920794         0.062794
 C        -0.595634         1.590693        -1.279270
 C        -1.900518         2.234852        -0.827965
 C        -2.882407         2.741900        -1.961256
 O        -3.530773         1.291497        -2.076752
 C        -2.962677         1.123510        -0.622210
 C        -1.991266         0.011722        -0.106886
 C        -1.408526         2.352463         0.537260
 H         0.891306         1.478399         0.827341
 H         0.310155         2.205419        -1.255513
 H        -0.520665         0.814452        -2.026215
 H        -3.674123         3.373226        -1.329259
 H        -2.309183         3.001441        -2.849821
 H        -3.721497         1.442715         0.037423
 H        -2.389241        -0.503828         0.807376
 H        -1.857541        -0.708434        -0.987421
 H        -0.554839         3.049106         0.754271
 H        -2.075294         2.380856         1.420696
