19
Iteration:  3051
 O         0.433328         0.508836         0.838892
 C        -0.721018         1.019882         0.153497
 C        -0.631822         1.510382        -1.328748
 C        -1.923564         2.218183        -0.904680
 C        -2.890608         2.739495        -1.974435
 O        -3.557254         1.353971        -2.022105
 C        -3.016577         1.122641        -0.674463
 C        -1.995812         0.070595        -0.117224
 C        -1.342723         2.373173         0.608267
 H         0.688212         1.119717         1.538341
 H         0.174862         2.287972        -1.590673
 H        -0.837043         0.699795        -2.134859
 H        -3.611333         3.507334        -1.709857
 H        -2.493098         2.901746        -2.939030
 H        -3.703214         1.440445         0.048417
 H        -2.310138        -0.735976         0.658561
 H        -1.613757        -0.493568        -0.938591
 H        -0.571258         3.188908         0.578040
 H        -2.091309         2.220209         1.496980
