19
Iteration:  4588
 O         0.369715         0.543197         0.866225
 C        -0.718249         0.994717         0.092757
 C        -0.696425         1.664521        -1.282259
 C        -2.046419         2.230187        -0.831375
 C        -2.895808         2.721990        -1.965410
 O        -3.406719         1.391328        -2.071861
 C        -3.025678         0.978196        -0.720538
 C        -1.910267        -0.049309        -0.119024
 C        -1.397328         2.337005         0.595025
 H         1.106063         1.160764         1.042729
 H         0.024306         2.580606        -1.494564
 H        -0.645404         0.932038        -2.100193
 H        -3.660853         3.490687        -1.910132
 H        -2.261860         3.093505        -2.802940
 H        -3.926839         1.282877        -0.096012
 H        -2.165681        -0.372411         0.996632
 H        -1.472738        -0.910888        -0.652053
 H        -0.736106         3.350789         0.730441
 H        -2.006215         2.499900         1.566393
