19
Iteration:  3986charge 0 multiplicity 1
 O         0.471461         0.525393         0.699451
 C        -0.780427         0.974583         0.209670
 C        -0.716864         1.519736        -1.259335
 C        -1.987623         2.297841        -0.881960
 C        -2.888986         2.664378        -2.050919
 O        -3.444371         1.282110        -1.993883
 C        -2.900988         1.165966        -0.699448
 C        -2.045268         0.025868         0.013931
 C        -1.403043         2.473323         0.624380
 H         1.060160         1.262889         0.698219
 H         0.173881         2.061800        -1.469271
 H        -0.841945         0.846048        -2.157645
 H        -3.726129         3.473988        -2.017294
 H        -2.256543         2.784973        -2.947934
 H        -3.835011         1.346396        -0.050712
 H        -2.393793        -0.519594         0.832825
 H        -1.828964        -0.765517        -0.605371
 H        -0.537868         3.223351         0.799383
 H        -2.182962         2.497638         1.377573
