19
Iteration:  4673
 O         0.321097         0.474342         0.834850
 C        -0.670992         0.997343         0.162791
 C        -0.685877         1.626436        -1.269759
 C        -2.058021         2.273687        -0.827493
 C        -2.980989         2.695049        -2.033997
 O        -3.385829         1.359582        -2.132822
 C        -2.924187         1.043356        -0.645486
 C        -1.876591         0.059045        -0.115653
 C        -1.432782         2.360880         0.614583
 H         1.039090         1.084822         0.910296
 H         0.018666         2.540696        -1.476204
 H        -0.700703         0.961161        -2.174730
 H        -3.786076         3.380666        -1.565375
 H        -2.367535         3.183401        -2.841768
 H        -3.781812         1.000381         0.047587
 H        -2.261984        -0.491321         0.788640
 H        -1.515826        -0.771040        -0.663528
 H        -0.642281         3.204928         0.812014
 H        -2.030444         2.484167         1.529050
