19
Iteration:  2748
 O         0.365960         0.349393         0.811238
 C        -0.734094         0.976467         0.111690
 C        -0.607503         1.522651        -1.419608
 C        -1.939050         2.282316        -0.929372
 C        -3.054238         2.791302        -1.908240
 O        -3.376519         1.274035        -1.998167
 C        -2.874787         1.105254        -0.586131
 C        -2.022001         0.070152        -0.032695
 C        -1.338833         2.617867         0.471484
 H         0.258328         0.670148         1.776953
 H         0.186780         2.245871        -1.530626
 H        -0.692485         0.867937        -2.251584
 H        -3.856265         3.210849        -1.351639
 H        -3.110776         3.068572        -2.943564
 H        -3.737797         1.464293         0.108624
 H        -2.474504        -0.555136         0.858769
 H        -1.735642        -0.735014        -0.811838
 H        -0.405977         3.315204         0.548127
 H        -2.022717         2.669880         1.319488
