19
Iteration:  4055
 O         0.298401         0.569830         0.913329
 C        -0.716399         1.028967         0.081533
 C        -0.663606         1.547271        -1.414386
 C        -1.923170         2.344641        -0.895274
 C        -3.121840         2.676458        -1.906096
 O        -3.350306         1.234225        -2.034870
 C        -2.833681         1.114755        -0.635444
 C        -1.973363         0.072129        -0.095231
 C        -1.290270         2.448841         0.540175
 H         0.029422        -0.283221         1.250425
 H         0.198727         2.162790        -1.657625
 H        -0.645664         0.801705        -2.161127
 H        -3.991484         3.263565        -1.329519
 H        -3.005721         3.241775        -2.906669
 H        -3.728465         1.405256         0.041637
 H        -2.285941        -0.651565         0.622140
 H        -1.692642        -0.503218        -0.902989
 H        -0.364775         3.031098         0.699469
 H        -2.022283         2.471471         1.408601
