19
Iteration:  4208charge 0 multiplicity 1
 O         0.360400         0.614131         0.861567
 C        -0.789805         0.996833         0.061624
 C        -0.622728         1.538641        -1.292772
 C        -1.975269         2.289670        -0.846278
 C        -2.987947         2.720259        -1.935266
 O        -3.381258         1.352978        -2.019359
 C        -2.935016         1.088039        -0.729778
 C        -2.000343        -0.055455        -0.100586
 C        -1.339753         2.345154         0.562718
 H         1.246336         0.883103         0.591048
 H         0.160643         2.329191        -1.227164
 H        -0.756318         0.829171        -2.068594
 H        -3.710787         3.457492        -1.718012
 H        -2.581538         2.955972        -2.969864
 H        -3.740262         1.290418        -0.034758
 H        -2.497685        -0.314346         0.847459
 H        -1.775604        -0.929010        -0.639837
 H        -0.667274         3.144151         0.903974
 H        -2.147587         2.398342         1.426617
