19
Iteration:  4008
 O         0.366816         0.469547         0.758928
 C        -0.717712         1.086361         0.170145
 C        -0.615908         1.580157        -1.273863
 C        -2.033012         2.193002        -0.850037
 C        -2.884679         2.651660        -2.035272
 O        -3.453660         1.305930        -2.060870
 C        -3.012977         1.124993        -0.584796
 C        -1.932574         0.044061         0.004423
 C        -1.418292         2.482377         0.552410
 H         1.075636         0.595529         0.048051
 H         0.188302         2.280778        -1.379471
 H        -0.589188         0.878495        -2.148477
 H        -3.560346         3.479929        -1.723115
 H        -2.398029         2.951160        -2.965197
 H        -3.870586         1.378375         0.017832
 H        -2.198450        -0.361909         0.963603
 H        -1.652419        -0.808053        -0.517544
 H        -0.673718         3.348457         0.625025
 H        -2.169359         2.490055         1.340212
