19
Iteration:   201charge 0 multiplicity 1
 O         0.476983         0.535937         0.889697
 C        -0.634911         0.969627         0.165048
 C        -0.667722         1.727796        -1.262975
 C        -1.992331         2.217795        -0.831359
 C        -2.932250         2.736057        -1.910255
 O        -3.545841         1.422201        -2.093556
 C        -2.892461         0.993022        -0.769360
 C        -1.852966        -0.070884        -0.261902
 C        -1.627103         2.447294         0.682949
 H         0.836986        -0.173665         0.285986
 H         0.197835         2.499798        -1.152230
 H        -0.604102         0.867436        -2.029200
 H        -3.638726         3.392486        -1.407619
 H        -2.682594         3.200932        -2.958158
 H        -3.607179         1.040488         0.078530
 H        -2.238601        -0.786629         0.474053
 H        -1.322897        -0.683499        -0.964987
 H        -1.025220         3.459302         0.806094
 H        -2.232767         2.207653         1.607584
