19
Iteration:  2640charge 0 multiplicity 1
 O         0.418239         0.401600         0.818812
 C        -0.686785         0.993919         0.074132
 C        -0.704318         1.576348        -1.436236
 C        -1.960879         2.292978        -0.888910
 C        -3.024446         2.719296        -1.866710
 O        -3.324141         1.247247        -2.018293
 C        -2.988078         1.139747        -0.661535
 C        -2.034613         0.090781         0.064338
 C        -1.302552         2.523889         0.453133
 H         0.110694        -0.344244         1.346482
 H         0.089297         2.297562        -1.290116
 H        -0.721829         1.025473        -2.355643
 H        -3.988608         3.172424        -1.606683
 H        -2.728913         3.244588        -2.834154
 H        -3.755308         1.364003         0.023800
 H        -2.400007         0.051110         1.015748
 H        -1.908430        -0.838380        -0.502394
 H        -0.488817         3.354721         0.445918
 H        -1.897411         2.838032         1.308618
