19
Iteration:  1720charge 0 multiplicity 1
 O         0.407704         0.579553         0.802273
 C        -0.811895         0.973024         0.162273
 C        -0.648179         1.531431        -1.303698
 C        -1.957960         2.280474        -0.902040
 C        -2.907120         2.720672        -2.009591
 O        -3.528604         1.352267        -1.933911
 C        -2.885924         1.183647        -0.637125
 C        -1.962561        -0.045450        -0.112173
 C        -1.368216         2.447692         0.495493
 H         0.545182        -0.298582         1.067223
 H         0.233688         2.149930        -1.472815
 H        -0.717372         0.722616        -2.040551
 H        -3.588889         3.558800        -1.852305
 H        -2.432355         2.804730        -3.019474
 H        -3.545197         1.357804         0.142540
 H        -2.464444        -0.633831         0.820139
 H        -1.610988        -0.868499        -0.777627
 H        -0.613702         3.047021         0.773255
 H        -1.986923         2.758584         1.371381
