19
Iteration:  3830charge 0 multiplicity 1
 O         0.397703         0.471542         0.802146
 C        -0.735127         1.009654         0.134724
 C        -0.630713         1.596841        -1.287962
 C        -1.991618         2.294781        -0.907933
 C        -2.987585         2.734637        -1.934915
 O        -3.348592         1.166070        -2.043134
 C        -2.934067         1.159678        -0.606927
 C        -2.041955         0.113752         0.037262
 C        -1.336173         2.513329         0.396862
 H         0.096293        -0.462538         0.822185
 H         0.250715         2.311266        -1.339822
 H        -0.454229         0.858585        -2.073179
 H        -3.966217         3.136981        -1.479197
 H        -2.767353         3.035047        -2.927196
 H        -3.844224         1.473428         0.083830
 H        -2.423748        -0.261722         0.943360
 H        -1.880629        -0.672205        -0.693540
 H        -0.540634         3.213176         0.466695
 H        -1.974717         2.690247         1.300287
