19
Iteration:  4240charge 0 multiplicity 1
 O         0.387114         0.420033         0.792223
 C        -0.732578         1.044850         0.151617
 C        -0.675746         1.632062        -1.169615
 C        -2.026135         2.294349        -0.848841
 C        -2.870562         2.614736        -2.032014
 O        -3.503960         1.306480        -2.007525
 C        -2.978537         1.122149        -0.629814
 C        -1.919464         0.047255        -0.197875
 C        -1.407510         2.478079         0.593866
 H         1.198717         0.919427         0.841790
 H         0.102816         2.445451        -1.406394
 H        -0.572670         0.977968        -2.049919
 H        -3.494888         3.465863        -2.047189
 H        -2.235420         2.681212        -2.987866
 H        -3.721084         1.149928         0.194075
 H        -2.215963        -0.566592         0.700734
 H        -1.593801        -0.571665        -1.023350
 H        -0.631711         3.259490         0.681493
 H        -2.262976         2.404445         1.360809
