19
Iteration:  3245
 O         0.265891         0.398378         0.955793
 C        -0.738600         1.005111         0.139463
 C        -0.630945         1.647439        -1.355700
 C        -1.967364         2.355517        -0.927036
 C        -3.030027         2.737310        -1.943656
 O        -3.494130         1.284825        -1.962682
 C        -2.824733         1.090827        -0.711227
 C        -1.913773        -0.010062        -0.162368
 C        -1.312246         2.456890         0.517467
 H         1.141068         0.763418         1.066302
 H         0.262918         2.283783        -1.433185
 H        -0.789857         0.938188        -2.144993
 H        -3.871079         3.513020        -1.748700
 H        -2.741713         2.903375        -3.062229
 H        -3.457183         1.370561         0.070216
 H        -2.396776        -0.623060         0.720111
 H        -1.562219        -0.769204        -0.852662
 H        -0.528178         3.157263         0.618627
 H        -2.013729         2.725186         1.421009
