19
Iteration:  4509
 O         0.206312         0.285283         0.852329
 C        -0.707423         1.091602         0.142852
 C        -0.606446         1.821198        -1.370384
 C        -2.034923         2.326063        -0.820082
 C        -2.977557         2.659224        -1.958459
 O        -3.343090         1.225632        -2.047233
 C        -2.897855         1.001110        -0.674309
 C        -1.910680         0.085160        -0.153086
 C        -1.376501         2.503377         0.625204
 H         1.127926         0.656701         0.916997
 H        -0.004563         2.766019        -1.427509
 H        -0.647822         1.107042        -2.239394
 H        -3.871660         3.200831        -1.654184
 H        -2.624772         2.968853        -2.916852
 H        -3.859103         1.150796        -0.136003
 H        -2.259862        -0.347456         0.823239
 H        -1.582212        -0.775019        -0.697363
 H        -0.530580         3.357376         0.655394
 H        -2.039405         2.472921         1.516787
