19
Iteration:  2784
 O         0.379218         0.546748         0.683243
 C        -0.701102         1.073533         0.171748
 C        -0.677945         1.452611        -1.323541
 C        -1.964957         2.251338        -0.843498
 C        -2.982578         2.765126        -1.995774
 O        -3.435749         1.276159        -2.055890
 C        -2.946667         1.133481        -0.678653
 C        -2.026176         0.093850         0.060488
 C        -1.265572         2.397447         0.575455
 H         0.250746        -0.022472         1.510462
 H         0.124246         2.190419        -1.544642
 H        -0.755253         0.846311        -2.237961
 H        -3.746844         3.419995        -1.625759
 H        -2.592868         3.199690        -2.986015
 H        -3.882602         1.245987         0.047197
 H        -2.519439        -0.317581         0.897917
 H        -1.697617        -0.702961        -0.624967
 H        -0.337638         3.117999         0.579704
 H        -1.769697         2.445602         1.567344
