19
Iteration:  4459charge 0 multiplicity 1
 O         0.442439         0.625150         0.811936
 C        -0.730008         0.944598         0.135619
 C        -0.640525         1.554723        -1.253816
 C        -1.970468         2.194375        -0.844524
 C        -2.921912         2.767923        -1.884060
 O        -3.394750         1.321179        -2.064320
 C        -2.919277         1.094910        -0.726791
 C        -2.095106        -0.030274        -0.155614
 C        -1.453347         2.359147         0.565746
 H         0.991892         1.457983         0.944208
 H         0.191277         2.269727        -1.009760
 H        -0.495662         1.041834        -2.169294
 H        -3.819686         3.392099        -1.510344
 H        -2.412254         3.110362        -2.898906
 H        -3.695802         1.648002        -0.152148
 H        -2.500134        -0.502895         0.851554
 H        -1.723718        -0.857119        -0.799949
 H        -0.911892         3.222426         0.740772
 H        -2.231477         2.041608         1.223248
