19
Iteration:  3583
 O         0.198848         0.414164         0.962740
 C        -0.764999         1.036361         0.141580
 C        -0.599329         1.605162        -1.362247
 C        -1.893304         2.322172        -0.967751
 C        -2.990112         2.710555        -1.990416
 O        -3.514899         1.230396        -1.940661
 C        -2.894159         1.139824        -0.608276
 C        -1.923650         0.034595        -0.061472
 C        -1.248156         2.502561         0.396640
 H         1.006330         0.297536         0.451766
 H         0.129533         2.401992        -1.218838
 H        -0.518284         0.961351        -2.270660
 H        -3.914260         3.188273        -1.554606
 H        -2.804747         3.022904        -3.081260
 H        -3.613158         1.416319         0.193314
 H        -2.144774        -0.319980         0.979637
 H        -1.634924        -0.732503        -0.749833
 H        -0.390865         3.140895         0.329082
 H        -1.916736         2.686489         1.221937
