19
Iteration:   588
 O         0.427173         0.543386         0.773795
 C        -0.732244         1.021630         0.148584
 C        -0.609217         1.622027        -1.313709
 C        -2.000903         2.276068        -0.830743
 C        -3.025997         2.748025        -1.871583
 O        -3.410780         1.311706        -2.084492
 C        -2.874584         1.072988        -0.694669
 C        -1.953425        -0.024450        -0.195190
 C        -1.412684         2.390058         0.655854
 H         0.290152         0.206867         1.622526
 H         0.200578         2.372198        -1.422906
 H        -0.749059         0.887230        -2.147807
 H        -3.916245         3.221618        -1.510427
 H        -2.667740         3.202026        -2.723427
 H        -3.735417         1.436116        -0.126646
 H        -2.476841        -0.565910         0.592747
 H        -1.573203        -0.695706        -0.971375
 H        -0.844933         3.247174         0.572769
 H        -2.086844         2.327869         1.520963
