19
Iteration:  3867
 O         0.431325         0.631038         0.785480
 C        -0.788032         1.034222         0.131694
 C        -0.703577         1.524934        -1.309710
 C        -2.010929         2.317365        -0.851967
 C        -2.827526         2.695614        -2.178944
 O        -3.544687         1.306255        -1.945227
 C        -2.953510         1.134928        -0.604792
 C        -1.914611         0.036857         0.012999
 C        -1.358265         2.360443         0.545378
 H         0.439446        -0.312563         1.179471
 H         0.108931         2.134000        -1.413271
 H        -0.751540         0.728481        -2.083910
 H        -3.483618         3.598479        -2.280118
 H        -2.067299         2.925932        -2.973238
 H        -3.732036         1.201704         0.166575
 H        -2.415626        -0.442495         0.855774
 H        -1.742067        -0.799908        -0.573340
 H        -0.482695         3.089332         0.563206
 H        -2.000202         2.235348         1.402902
