19
Iteration:   389
 O         0.377815         0.421276         0.848472
 C        -0.748554         1.089334         0.133687
 C        -0.565522         1.764088        -1.240069
 C        -1.934447         2.362833        -0.909890
 C        -3.127820         2.687229        -1.823593
 O        -3.407910         1.281094        -2.064918
 C        -2.839752         1.086411        -0.809902
 C        -1.855359         0.009003        -0.200092
 C        -1.465471         2.354432         0.587956
 H         0.046711        -0.461065         1.239824
 H         0.319950         2.461252        -1.230970
 H        -0.648429         1.156697        -2.178923
 H        -3.964623         3.196848        -1.245150
 H        -3.006463         3.381752        -2.686297
 H        -3.708984         1.323690        -0.159558
 H        -2.259427        -0.430509         0.705298
 H        -1.524673        -0.696647        -0.941721
 H        -0.742687         3.020002         0.969155
 H        -2.192508         2.168587         1.350593
