19
Iteration:  4888charge 0 multiplicity 1
 O         0.222059         0.338575         0.814313
 C        -0.754424         1.098159         0.113935
 C        -0.551814         1.729238        -1.281583
 C        -1.978121         2.321753        -0.852384
 C        -3.048469         2.662542        -1.968816
 O        -3.336712         1.181136        -2.069724
 C        -2.842745         1.088664        -0.629419
 C        -1.942819         0.053170        -0.149116
 C        -1.410067         2.469175         0.613493
 H         0.944523         0.985656         0.772208
 H         0.276624         2.426012        -1.182380
 H        -0.687178         1.182189        -2.219766
 H        -3.776726         3.254793        -1.411232
 H        -2.837046         3.262009        -2.878868
 H        -3.655826         1.499381        -0.082723
 H        -2.197228        -0.489479         0.783851
 H        -1.579384        -0.742680        -0.856426
 H        -0.736874         3.334129         0.815726
 H        -2.190664         2.481390         1.413264
