19
Iteration:  4456charge 0 multiplicity 1
 O         0.425105         0.640718         0.806636
 C        -0.737434         0.942986         0.149541
 C        -0.620183         1.527450        -1.246035
 C        -1.991007         2.215757        -0.862237
 C        -2.901972         2.780445        -1.857825
 O        -3.400713         1.331028        -2.091716
 C        -2.915844         1.110443        -0.703189
 C        -2.069925        -0.043962        -0.142846
 C        -1.460283         2.316280         0.542639
 H         0.983218         1.453736         0.926990
 H         0.184819         2.334905        -1.112373
 H        -0.427192         1.059742        -2.220576
 H        -3.827998         3.304456        -1.559737
 H        -2.541560         3.092859        -2.857314
 H        -3.749432         1.628422        -0.091257
 H        -2.487433        -0.479427         0.888771
 H        -1.723046        -0.876236        -0.774302
 H        -0.823987         3.283518         0.744231
 H        -2.230142         2.047591         1.275753
