19
Iteration:  2160charge 0 multiplicity 1
 O         0.321260         0.389436         0.833987
 C        -0.712765         1.013326         0.081151
 C        -0.658844         1.650109        -1.436730
 C        -1.889743         2.339491        -0.930423
 C        -3.068303         2.675717        -2.013371
 O        -3.468129         1.279662        -1.948243
 C        -2.828803         1.151407        -0.582491
 C        -1.958226         0.049656        -0.020632
 C        -1.279763         2.506998         0.530504
 H        -0.100738         0.023408         1.631894
 H         0.232160         2.180389        -1.692260
 H        -0.769831         0.864939        -2.148722
 H        -3.982105         3.310206        -1.730218
 H        -2.787109         2.860829        -3.049221
 H        -3.560373         1.530142         0.259641
 H        -2.385628        -0.369410         0.892196
 H        -1.822330        -0.852752        -0.669440
 H        -0.434577         3.260735         0.509963
 H        -1.890942         2.442559         1.508133
