19
Iteration:  3527charge 0 multiplicity 1
 O         0.453777         0.611389         0.758493
 C        -0.755971         1.044728         0.181793
 C        -0.715082         1.497584        -1.268318
 C        -1.955306         2.217815        -0.808901
 C        -2.917823         2.708700        -2.004310
 O        -3.421951         1.400748        -2.093160
 C        -2.982513         1.008402        -0.657419
 C        -2.059807        -0.026311         0.027983
 C        -1.309257         2.493585         0.526957
 H         0.619052        -0.321065         0.818480
 H         0.103319         2.209435        -1.516473
 H        -0.829348         0.794997        -2.101718
 H        -3.800186         3.490641        -1.861099
 H        -2.402296         2.863593        -2.997455
 H        -3.790982         1.299610        -0.024086
 H        -2.444318        -0.585067         0.994570
 H        -1.737595        -0.802366        -0.598701
 H        -0.623344         3.280121         0.478698
 H        -1.865636         2.845298         1.412098
