19
Iteration:  4503
 O         0.207377         0.283329         0.847219
 C        -0.723425         1.118341         0.103927
 C        -0.635736         1.788559        -1.325310
 C        -2.053187         2.298794        -0.867985
 C        -2.981311         2.684865        -1.972871
 O        -3.341105         1.248962        -2.021739
 C        -2.868364         0.997067        -0.695843
 C        -1.903879         0.098892        -0.096867
 C        -1.352364         2.487140         0.652689
 H         1.061456         0.819882         0.893225
 H         0.065620         2.620184        -1.491168
 H        -0.616465         1.197693        -2.217535
 H        -3.879723         3.321991        -1.792364
 H        -2.547276         2.926996        -2.995001
 H        -3.776000         0.828178        -0.033072
 H        -2.374580        -0.458661         0.774427
 H        -1.509815        -0.626434        -0.875967
 H        -0.694560         3.306553         0.646770
 H        -1.987123         2.450127         1.536684
