19
Iteration:  1397charge 0 multiplicity 1
 O         0.410181         0.550994         0.738169
 C        -0.817150         1.041466         0.148778
 C        -0.590594         1.632252        -1.248092
 C        -1.915980         2.265660        -0.906031
 C        -3.027409         2.731322        -1.931146
 O        -3.402436         1.321054        -2.039980
 C        -2.879959         1.102816        -0.699377
 C        -1.960732         0.002119        -0.138849
 C        -1.439181         2.347763         0.622331
 H         0.305151         0.207388         1.716599
 H         0.274009         2.103907        -1.589690
 H        -0.794358         0.832560        -1.952909
 H        -3.838187         3.446829        -1.678549
 H        -2.644371         3.090867        -2.888481
 H        -3.611987         1.270216         0.088415
 H        -2.524100        -0.437424         0.842918
 H        -1.582887        -0.848804        -0.851572
 H        -0.577795         3.029120         0.760692
 H        -2.166184         2.472478         1.424813
