19
Iteration:   415
 O         0.332823         0.587332         0.807385
 C        -0.776001         0.979291         0.059166
 C        -0.642515         1.713127        -1.229074
 C        -1.985849         2.278394        -0.804612
 C        -3.008003         2.734379        -1.885591
 O        -3.313922         1.304387        -2.019847
 C        -2.891567         1.087634        -0.701304
 C        -1.896913        -0.086788        -0.268321
 C        -1.449516         2.404183         0.627536
 H         0.484579        -0.391371         1.027216
 H         0.154393         2.394513        -1.285555
 H        -0.692190         1.108214        -2.111005
 H        -3.836369         3.303546        -1.442850
 H        -2.708625         3.262577        -2.732898
 H        -3.783071         1.292941        -0.096598
 H        -2.175238        -0.780688         0.528964
 H        -1.707404        -0.672036        -1.205646
 H        -0.688019         3.163971         0.849538
 H        -2.155148         2.330271         1.516386
