19
Iteration:  2656
 O         0.401919         0.512947         0.723346
 C        -0.796395         0.985135         0.151478
 C        -0.667574         1.532326        -1.284637
 C        -1.955710         2.307002        -0.862724
 C        -3.023691         2.702011        -1.982895
 O        -3.431573         1.304536        -2.060794
 C        -2.862639         1.151028        -0.618699
 C        -1.989680         0.075198         0.037526
 C        -1.281056         2.457764         0.463367
 H         0.186394        -0.178582         1.316119
 H         0.154850         2.227208        -1.622501
 H        -0.840737         0.688324        -2.039796
 H        -3.697580         3.391233        -1.426297
 H        -2.688732         3.010807        -2.959505
 H        -3.721926         1.396409         0.131639
 H        -2.497750        -0.307273         1.027487
 H        -1.789555        -0.798536        -0.602986
 H        -0.418973         3.048245         0.561898
 H        -1.899612         2.517964         1.386932
