19
Iteration:  2951
 O         0.294272         0.458519         0.649536
 C        -0.735423         1.069120         0.077542
 C        -0.612599         1.709092        -1.272035
 C        -1.992936         2.299914        -0.800340
 C        -2.906099         2.601382        -2.062938
 O        -3.449390         1.247715        -1.946653
 C        -2.949623         1.112542        -0.654904
 C        -1.979902         0.114761        -0.027758
 C        -1.293728         2.429488         0.626992
 H         0.030478        -0.292835         1.289043
 H         0.330948         2.324378        -1.290287
 H        -0.587132         1.159753        -2.265836
 H        -3.626435         3.371608        -1.906895
 H        -2.350178         2.713023        -2.992727
 H        -3.685904         1.474985        -0.005357
 H        -2.314474        -0.317972         0.891222
 H        -1.745960        -0.743859        -0.560689
 H        -0.427442         3.048464         0.698114
 H        -2.114256         2.524689         1.477079
