19
Iteration:  3401charge 0 multiplicity 1
 O         0.399708         0.645158         0.895408
 C        -0.724402         0.903698         0.073925
 C        -0.640806         1.556938        -1.338671
 C        -1.950814         2.202300        -0.872279
 C        -2.910258         2.751153        -1.929203
 O        -3.516519         1.360129        -2.064193
 C        -2.895633         1.132237        -0.627087
 C        -2.017856        -0.049141        -0.092095
 C        -1.384337         2.326395         0.560456
 H         0.828966         1.536606         1.123999
 H         0.109639         2.291165        -1.396724
 H        -0.703710         0.912059        -2.233331
 H        -3.621483         3.543268        -1.818004
 H        -2.268590         3.048167        -2.742527
 H        -3.780355         1.320943        -0.024709
 H        -2.382124        -0.515804         0.812335
 H        -1.950819        -0.841213        -0.993214
 H        -0.532549         3.043424         0.642127
 H        -2.156367         2.286231         1.255455
