19
Iteration:   348
 O         0.412836         0.549045         0.741866
 C        -0.770207         0.988536         0.134189
 C        -0.714730         1.745387        -1.204098
 C        -2.025617         2.283445        -0.736221
 C        -2.915296         2.744052        -1.902118
 O        -3.388646         1.341509        -2.077132
 C        -2.915266         1.003979        -0.773786
 C        -1.894654        -0.041584        -0.258524
 C        -1.426804         2.358054         0.644691
 H         0.300470         0.348467         1.660742
 H         0.094625         2.391332        -1.373377
 H        -0.749529         1.033624        -2.010691
 H        -3.756345         3.423108        -1.593771
 H        -2.584839         3.086190        -2.812782
 H        -3.744545         1.032729        -0.042667
 H        -2.301309        -0.728424         0.465595
 H        -1.382459        -0.784781        -0.921103
 H        -0.765275         3.190760         0.758102
 H        -2.156370         2.375243         1.599750
