19
Iteration:  3260charge 0 multiplicity 1
 O         0.310315         0.492651         0.912683
 C        -0.757184         0.979094         0.121006
 C        -0.612778         1.582476        -1.305628
 C        -1.930275         2.226790        -0.862829
 C        -2.944820         2.691210        -1.981845
 O        -3.561971         1.422921        -2.033429
 C        -2.902321         1.074131        -0.684478
 C        -1.891431        -0.037394        -0.097714
 C        -1.356721         2.437134         0.518028
 H         0.944027         1.267503         0.710841
 H         0.095372         2.385772        -1.396678
 H        -0.630705         0.935283        -2.200407
 H        -3.707001         3.464833        -1.524202
 H        -2.465001         3.165161        -2.815134
 H        -3.788460         1.074665         0.037334
 H        -2.254874        -0.337423         0.839487
 H        -1.556703        -0.948669        -0.746198
 H        -0.480313         3.116371         0.464688
 H        -2.005413         2.378000         1.309441
