19
Iteration:  4257
 O         0.290407         0.299298         0.762371
 C        -0.769232         1.059355         0.151155
 C        -0.529638         1.751255        -1.309939
 C        -1.987725         2.275225        -0.805975
 C        -2.951238         2.657708        -2.116397
 O        -3.497716         1.280649        -1.967114
 C        -2.853027         1.053843        -0.651372
 C        -1.875119         0.031872        -0.072595
 C        -1.455530         2.527246         0.622516
 H         0.985606         0.961598         0.977137
 H         0.165304         2.519309        -1.203904
 H        -0.596817         1.037632        -2.148182
 H        -3.856146         3.418572        -2.013208
 H        -2.551448         2.934304        -3.062957
 H        -3.666196         1.329383         0.038414
 H        -2.418851        -0.425280         0.758921
 H        -1.556922        -0.764554        -0.831918
 H        -0.738484         3.352519         0.688746
 H        -2.009501         2.662568         1.488522
