19
Iteration:  1496charge 0 multiplicity 1
 O         0.433853         0.697847         0.844099
 C        -0.741016         0.956973         0.177904
 C        -0.687176         1.559224        -1.311746
 C        -1.968950         2.234563        -0.849585
 C        -2.957475         2.790592        -1.929868
 O        -3.417630         1.414134        -2.108794
 C        -2.929139         1.003014        -0.730434
 C        -2.038832        -0.083248        -0.034195
 C        -1.369299         2.359321         0.553342
 H         0.845775        -0.221951         0.649553
 H         0.245025         2.071752        -1.250468
 H        -0.702986         1.018656        -2.244284
 H        -3.614213         3.516392        -1.404446
 H        -2.530902         3.181315        -2.854967
 H        -3.769922         1.264891         0.101502
 H        -2.563662        -0.418707         0.897347
 H        -1.849577        -0.981860        -0.697953
 H        -0.519006         3.140732         0.458624
 H        -2.110330         2.397455         1.296862
