19
Iteration:  4546charge 0 multiplicity 1
 O         0.341894         0.483563         0.783834
 C        -0.791164         1.064598         0.254090
 C        -0.591304         1.604845        -1.310016
 C        -1.938374         2.292911        -0.807674
 C        -3.081906         2.713875        -1.959331
 O        -3.309794         1.302566        -2.075320
 C        -2.919968         1.100257        -0.762844
 C        -1.973684        -0.032079        -0.134683
 C        -1.420243         2.395563         0.600704
 H         1.065447         1.204238         0.812733
 H         0.242542         2.335776        -1.440466
 H        -0.428417         0.891859        -2.096345
 H        -3.908239         3.263382        -1.493381
 H        -2.831204         3.222374        -2.936937
 H        -3.750404         1.249345         0.043126
 H        -2.558514        -0.370320         0.833525
 H        -1.543841        -0.915948        -0.726215
 H        -0.611021         3.100968         0.915219
 H        -2.203189         2.351793         1.408223
