19
Iteration:   817charge 0 multiplicity 1
 O         0.404637         0.582331         0.790183
 C        -0.743707         1.009607         0.159729
 C        -0.695947         1.603204        -1.352276
 C        -1.964234         2.295032        -0.826679
 C        -3.003313         2.714026        -1.921516
 O        -3.359089         1.266909        -2.104465
 C        -2.931825         1.103279        -0.592307
 C        -2.022789         0.073739        -0.082730
 C        -1.335454         2.380987         0.573650
 H         0.655393        -0.279601         0.497539
 H         0.118429         2.370419        -1.315100
 H        -0.870004         0.873527        -2.137600
 H        -3.935579         3.379822        -1.717661
 H        -2.439136         3.077764        -2.818437
 H        -3.748618         1.472742         0.061411
 H        -2.309951        -0.496773         0.791524
 H        -1.841889        -0.745762        -0.723758
 H        -0.461904         2.929382         0.787487
 H        -2.137904         2.274670         1.330959
