19
Iteration:   344charge 0 multiplicity 1
 O         0.401552         0.580436         0.716210
 C        -0.755904         1.002312         0.144505
 C        -0.763188         1.680513        -1.204721
 C        -1.991638         2.261046        -0.747237
 C        -2.916610         2.740772        -1.935121
 O        -3.371805         1.344151        -2.079885
 C        -2.886447         1.033697        -0.726975
 C        -1.884431        -0.052169        -0.281553
 C        -1.449090         2.328353         0.723975
 H         0.374894         0.413860         1.715943
 H         0.076906         2.489440        -1.318462
 H        -0.845641         1.095887        -2.178360
 H        -3.736034         3.440973        -1.622302
 H        -2.621435         3.193277        -2.961546
 H        -3.788507         1.088106        -0.071996
 H        -2.416655        -0.701304         0.442486
 H        -1.485605        -0.770755        -0.970400
 H        -0.769952         3.189174         0.784188
 H        -2.103649         2.430169         1.542085
