19
Iteration:   178
 O         0.340442         0.491598         0.817363
 C        -0.800335         0.999266         0.142017
 C        -0.590366         1.760108        -1.215745
 C        -2.046480         2.275772        -0.767183
 C        -2.998286         2.772495        -1.833127
 O        -3.374536         1.304936        -2.083788
 C        -2.924253         0.977432        -0.712618
 C        -1.864299        -0.014579        -0.252208
 C        -1.483830         2.400241         0.578554
 H         1.005421         0.642061         0.089286
 H         0.225032         2.536768        -1.178969
 H        -0.587972         1.022159        -2.084948
 H        -3.915716         3.321909        -1.668248
 H        -2.440246         3.226658        -2.741792
 H        -3.690663         0.972952         0.075719
 H        -2.102539        -0.684444         0.560114
 H        -1.427108        -0.641945        -1.022673
 H        -0.571516         3.042502         0.717295
 H        -2.075588         2.363106         1.467574
