19
Iteration:   874charge 0 multiplicity 1
 O         0.304762         0.453921         0.853087
 C        -0.707175         1.066507         0.132433
 C        -0.623248         1.581255        -1.306124
 C        -1.943383         2.236471        -0.836822
 C        -2.970668         2.733993        -1.937620
 O        -3.484466         1.334737        -2.022857
 C        -2.925193         1.067011        -0.684265
 C        -1.919705        -0.014096        -0.113509
 C        -1.412013         2.489891         0.509713
 H         1.161247         0.430375         0.335681
 H         0.254332         2.210866        -1.560827
 H        -0.545583         0.839739        -2.130167
 H        -3.817238         3.347344        -1.413292
 H        -2.740709         3.175693        -2.910669
 H        -3.517562         1.278464         0.188722
 H        -2.232568        -0.284389         0.887280
 H        -1.533711        -0.793888        -0.677042
 H        -0.699845         3.301350         0.661463
 H        -2.058191         2.536812         1.393819
