19
Iteration:   354
 O         0.431566         0.506547         0.762391
 C        -0.778487         0.992777         0.141071
 C        -0.640639         1.780722        -1.214323
 C        -2.080927         2.304940        -0.751255
 C        -2.950122         2.745402        -1.841679
 O        -3.411480         1.340828        -2.086395
 C        -2.934924         0.975808        -0.801735
 C        -1.891955        -0.043729        -0.236660
 C        -1.435564         2.396594         0.588345
 H         0.119778         0.233232         1.695865
 H         0.263892         2.490887        -1.365847
 H        -0.629486         0.965961        -1.993468
 H        -3.815094         3.356758        -1.563627
 H        -2.338797         3.073848        -2.786558
 H        -3.736957         0.991061        -0.030292
 H        -2.205959        -0.669418         0.641103
 H        -1.359601        -0.672995        -0.938669
 H        -0.626863         3.157932         0.730606
 H        -2.055008         2.284581         1.404641
