19
Iteration:   504
 O         0.298395         0.403453         0.831212
 C        -0.755914         0.983517         0.158423
 C        -0.659677         1.742358        -1.256448
 C        -1.998587         2.339680        -0.830025
 C        -3.106561         2.666789        -1.871563
 O        -3.306748         1.310605        -2.090709
 C        -2.916313         1.027023        -0.748735
 C        -1.922689         0.031424        -0.210114
 C        -1.329887         2.419733         0.659847
 H         1.109618         0.839476         0.378328
 H         0.135102         2.494579        -1.367344
 H        -0.610055         1.129287        -2.141293
 H        -4.020455         3.261998        -1.521477
 H        -2.738550         3.197919        -2.771784
 H        -3.764644         1.018683        -0.032426
 H        -2.298511        -0.563623         0.685562
 H        -1.552875        -0.592644        -1.049912
 H        -0.425802         3.159306         0.930044
 H        -2.040436         2.691782         1.450149
