19
Iteration:  1596
 O         0.489658         0.425413         0.735778
 C        -0.733340         0.935787         0.120146
 C        -0.704326         1.576033        -1.328586
 C        -2.002982         2.300409        -0.824695
 C        -2.875374         2.784011        -2.036442
 O        -3.452671         1.301226        -2.066728
 C        -2.934514         1.105347        -0.653538
 C        -2.008863         0.083450         0.039047
 C        -1.418192         2.446142         0.579810
 H         0.524973         0.816431         1.572819
 H         0.042618         2.342947        -1.298532
 H        -0.885276         0.975317        -2.189694
 H        -3.663911         3.504752        -1.741298
 H        -2.284323         2.944135        -2.967024
 H        -3.786728         1.273645         0.142892
 H        -2.395609        -0.446216         1.024956
 H        -1.837567        -0.887607        -0.578452
 H        -0.621340         3.425252         0.486465
 H        -2.162583         2.242278         1.309154
