19
Iteration:  3201charge 0 multiplicity 1
 O         0.235119         0.313607         0.787884
 C        -0.741221         1.020068         0.130880
 C        -0.572504         1.699785        -1.304100
 C        -1.936796         2.300565        -0.900202
 C        -3.005386         2.733362        -1.983681
 O        -3.436475         1.203918        -1.974674
 C        -2.875377         1.126331        -0.648333
 C        -1.984404         0.045320        -0.058570
 C        -1.322427         2.512758         0.499954
 H         0.888905         0.998447         0.902560
 H         0.191712         2.488972        -1.284996
 H        -0.474020         1.071845        -2.157198
 H        -3.930085         3.351275        -1.631750
 H        -2.509002         3.077146        -3.001337
 H        -3.699762         1.323852         0.053927
 H        -2.390412        -0.322863         0.988888
 H        -1.699136        -0.842476        -0.622339
 H        -0.574450         3.205984         0.716608
 H        -1.943820         2.691357         1.412743
