19
Iteration:  4225charge 0 multiplicity 1
 O         0.389219         0.558069         0.849793
 C        -0.768481         0.967685         0.180635
 C        -0.683071         1.637618        -1.309701
 C        -1.973433         2.260230        -0.824958
 C        -2.826498         2.706129        -2.054081
 O        -3.506358         1.292224        -2.048476
 C        -2.919080         1.117046        -0.569823
 C        -1.974756         0.010993        -0.145178
 C        -1.417822         2.359069         0.601733
 H         0.960306         1.164214         0.381321
 H         0.139858         2.361399        -1.339784
 H        -0.691811         0.965873        -2.236785
 H        -3.701587         3.383601        -1.721650
 H        -2.244895         2.899128        -2.935227
 H        -3.819850         1.464837         0.032182
 H        -2.351469        -0.701629         0.640457
 H        -1.736674        -0.666315        -1.075216
 H        -0.527629         3.000065         0.686072
 H        -2.013299         2.411409         1.434344
