19
Iteration:  4992charge 0 multiplicity 1
 O         0.225945         0.294165         0.825280
 C        -0.679841         1.086598         0.171162
 C        -0.632436         1.713996        -1.270139
 C        -1.994022         2.345344        -0.858848
 C        -3.105634         2.720678        -1.994442
 O        -3.336189         1.224603        -2.088463
 C        -2.887871         1.027538        -0.720532
 C        -1.839234         0.136505        -0.097714
 C        -1.372214         2.439686         0.640198
 H         0.959874         0.866547         0.872158
 H         0.200274         2.406014        -1.406194
 H        -0.637672         1.037572        -2.144346
 H        -3.938963         3.182032        -1.486752
 H        -2.897759         3.229167        -2.903611
 H        -3.762439         1.400209        -0.223973
 H        -2.472249        -0.324623         0.857291
 H        -1.585492        -0.834914        -0.604841
 H        -0.710918         3.251591         0.396936
 H        -1.869449         2.427037         1.639425
