19
Iteration:   799
 O         0.404264         0.590882         0.699333
 C        -0.769709         0.986368         0.113442
 C        -0.696215         1.577654        -1.246704
 C        -1.999412         2.294984        -0.839821
 C        -2.878600         2.727169        -2.001500
 O        -3.425382         1.341525        -2.020252
 C        -2.943940         1.099147        -0.724286
 C        -1.918402        -0.035900         0.015720
 C        -1.441063         2.421549         0.622155
 H         0.512282        -0.355645         0.652590
 H         0.103708         2.421292        -1.303258
 H        -0.805806         0.938671        -2.213900
 H        -3.623529         3.451710        -1.621073
 H        -2.435551         2.991567        -2.951559
 H        -3.731686         1.013527         0.030542
 H        -2.356632        -0.398218         1.003431
 H        -1.587547        -0.907750        -0.641576
 H        -0.567991         3.254627         0.511225
 H        -2.015127         2.423983         1.620088
