19
Iteration:  2359charge 0 multiplicity 1
 O         0.465576         0.438283         0.781734
 C        -0.702143         1.007480         0.111970
 C        -0.651155         1.478028        -1.306478
 C        -1.916325         2.239269        -0.906346
 C        -2.937203         2.689208        -1.923064
 O        -3.502832         1.336193        -1.959312
 C        -2.975216         1.175572        -0.588942
 C        -2.044999         0.023629        -0.061959
 C        -1.332109         2.550729         0.413068
 H         0.281020         0.527690         1.748069
 H         0.113781         2.222104        -1.484419
 H        -0.744468         0.742863        -2.059028
 H        -3.749693         3.460845        -1.574774
 H        -2.627044         2.971731        -2.942276
 H        -3.721217         1.365283         0.162629
 H        -2.637093        -0.565193         0.652935
 H        -1.702740        -0.617635        -0.924259
 H        -0.524771         3.392744         0.369455
 H        -1.990397         2.732712         1.255129
