19
Iteration:   612charge 0 multiplicity 1
 O         0.337953         0.463656         0.802751
 C        -0.744077         1.010997         0.055045
 C        -0.641545         1.690451        -1.350174
 C        -2.056955         2.276649        -0.812082
 C        -2.988419         2.721522        -1.879077
 O        -3.342052         1.316727        -2.060102
 C        -2.938585         1.005571        -0.667476
 C        -1.807038         0.069975        -0.108420
 C        -1.431004         2.446117         0.586601
 H         0.102701        -0.466690         1.081487
 H        -0.065311         2.627446        -1.202168
 H        -0.595510         1.162849        -2.299625
 H        -3.848440         3.366815        -1.411130
 H        -2.645036         3.133923        -2.824406
 H        -3.963140         1.115580        -0.166242
 H        -2.268967        -0.214566         0.906673
 H        -1.403280        -0.808951        -0.682488
 H        -0.462989         3.046445         0.636811
 H        -2.101357         2.492927         1.404010
