19
Iteration:   271charge 0 multiplicity 1
 O         0.395073         0.395701         0.750309
 C        -0.766034         1.090424         0.176018
 C        -0.682892         1.677710        -1.200367
 C        -2.109043         2.261542        -0.795625
 C        -3.072997         2.739224        -1.884816
 O        -3.270202         1.318439        -2.111413
 C        -2.856538         1.033843        -0.775531
 C        -1.798424         0.077416        -0.218226
 C        -1.463947         2.461858         0.631693
 H         0.093206        -0.422843         1.174694
 H        -0.033103         2.507386        -1.223473
 H        -0.753977         1.048022        -2.080906
 H        -3.963241         3.149261        -1.339182
 H        -2.894683         3.332233        -2.697827
 H        -3.758254         1.046015        -0.124310
 H        -2.185714        -0.496558         0.644667
 H        -1.392443        -0.695567        -0.924168
 H        -0.740936         3.258960         0.653770
 H        -1.974265         2.341675         1.710970
