19
Iteration:  3497
 O         0.420604         0.510566         0.683448
 C        -0.754254         1.065484         0.131823
 C        -0.730728         1.559939        -1.287634
 C        -1.982777         2.296166        -0.843187
 C        -2.880990         2.700491        -2.069536
 O        -3.361664         1.273061        -2.024020
 C        -3.006250         1.078457        -0.597701
 C        -1.994553         0.114754         0.005525
 C        -1.341990         2.412976         0.621939
 H         0.215462        -0.174433         1.400036
 H        -0.069571         2.413908        -1.541288
 H        -0.721480         0.813010        -2.164951
 H        -3.691215         3.466148        -1.986010
 H        -2.449829         2.892397        -3.110229
 H        -3.832661         1.317950         0.049536
 H        -2.279729        -0.227324         0.944095
 H        -1.789743        -0.786035        -0.573332
 H        -0.509795         3.160743         0.716337
 H        -2.123406         2.444697         1.399480
