19
Iteration:   123
 O         0.412990         0.400056         0.605775
 C        -0.742270         1.060868         0.111983
 C        -0.709294         1.733773        -1.217548
 C        -2.058708         2.248714        -0.786825
 C        -3.005862         2.756024        -1.854646
 O        -3.259496         1.302574        -2.154072
 C        -2.880420         1.000535        -0.689703
 C        -1.881573         0.024493        -0.061086
 C        -1.523491         2.436921         0.620222
 H         0.254057         0.347981         1.618498
 H        -0.087451         2.673973        -1.211814
 H        -0.624368         1.121635        -2.167507
 H        -3.924577         3.171517        -1.472954
 H        -2.598465         3.306714        -2.771845
 H        -3.793321         1.165510        -0.089794
 H        -2.178661        -0.340989         0.903122
 H        -1.516122        -0.795831        -0.678952
 H        -0.795278         3.273882         0.902211
 H        -2.176999         2.288414         1.479503
