19
Iteration:  2152charge 0 multiplicity 1
 O         0.343018         0.346611         0.852896
 C        -0.642798         1.016178         0.079687
 C        -0.665083         1.638207        -1.420365
 C        -1.941525         2.333273        -0.866667
 C        -3.118077         2.707242        -2.018928
 O        -3.406920         1.246171        -1.937011
 C        -2.850833         1.137819        -0.640110
 C        -1.986763         0.037308         0.001855
 C        -1.270062         2.521455         0.475199
 H        -0.172814        -0.010190         1.562074
 H         0.326107         2.084064        -1.599935
 H        -0.940498         1.005346        -2.253226
 H        -3.961714         3.425085        -1.622274
 H        -2.945457         3.193741        -2.971677
 H        -3.558598         1.559282         0.021820
 H        -2.436163        -0.128543         0.950088
 H        -1.751613        -0.876996        -0.620729
 H        -0.426108         3.436414         0.453949
 H        -2.013852         2.717315         1.320027
