19
Iteration:  3217
 O         0.143204         0.319393         0.835879
 C        -0.723118         1.067654         0.035627
 C        -0.491697         1.660145        -1.318212
 C        -1.946262         2.354509        -0.898911
 C        -3.020681         2.538157        -1.899519
 O        -3.392332         1.237725        -1.971020
 C        -2.940491         1.166615        -0.583578
 C        -1.934255         0.139347        -0.144878
 C        -1.337162         2.498131         0.510764
 H         1.017810         0.642073         1.185354
 H         0.282982         2.441487        -1.221956
 H        -0.435463         0.953046        -2.202884
 H        -3.777133         3.208668        -1.522867
 H        -2.926223         2.917208        -2.849704
 H        -3.735986         1.589761         0.175255
 H        -2.113796        -0.446920         0.676818
 H        -1.754062        -0.559430        -1.052765
 H        -0.471497         3.275901         0.414590
 H        -1.998051         2.555699         1.368355
