19
Iteration:  1357charge 0 multiplicity 1
 O         0.463701         0.609487         0.830137
 C        -0.688441         1.044469         0.178704
 C        -0.653151         1.572464        -1.341350
 C        -2.049447         2.170056        -0.816399
 C        -2.897101         2.751822        -1.892135
 O        -3.404127         1.405223        -2.109696
 C        -3.026059         0.992265        -0.640778
 C        -1.978582         0.006220        -0.113895
 C        -1.438311         2.382646         0.538614
 H         0.245251        -0.132227         1.329073
 H         0.097128         2.397525        -1.580213
 H        -0.722611         0.870927        -2.228304
 H        -3.707806         3.424336        -1.558371
 H        -2.408523         3.130304        -2.850186
 H        -3.919285         1.416196        -0.087965
 H        -2.179526        -0.547054         0.780586
 H        -1.620060        -0.795183        -0.799907
 H        -0.594264         3.135091         0.256522
 H        -1.981068         2.427087         1.481491
