19
Iteration:    67charge 0 multiplicity 1
 O         0.313232         0.606261         0.954450
 C        -0.702170         1.034163         0.026406
 C        -0.631982         1.701051        -1.412123
 C        -1.938507         2.315787        -0.813085
 C        -2.972517         2.673061        -1.882067
 O        -3.451516         1.307901        -2.021223
 C        -2.906767         1.066685        -0.669667
 C        -1.927461         0.007157        -0.219909
 C        -1.440821         2.253201         0.653384
 H         1.062456         0.388524         0.366479
 H         0.163526         2.449669        -1.521721
 H        -0.712805         1.135138        -2.359154
 H        -3.809289         3.325447        -1.626481
 H        -2.590488         3.052104        -2.871297
 H        -3.726551         1.372005        -0.045486
 H        -2.096693        -0.506408         0.701625
 H        -1.676115        -0.749616        -0.979064
 H        -0.664189         2.939547         1.008490
 H        -2.112664         1.953683         1.430296
