19
Iteration:  1757
 O         0.438610         0.544855         0.893135
 C        -0.688253         0.907568         0.125582
 C        -0.679754         1.529545        -1.415975
 C        -1.974794         2.242073        -0.908352
 C        -3.041102         2.788455        -1.890823
 O        -3.407956         1.338445        -2.112053
 C        -2.947821         1.123898        -0.669267
 C        -1.985213         0.056299         0.069137
 C        -1.317718         2.445724         0.479338
 H         0.376418        -0.371619         1.177160
 H        -0.010049         2.413238        -1.719121
 H        -0.752716         0.763916        -2.285574
 H        -3.921154         3.320209        -1.430880
 H        -2.571476         3.384407        -2.686492
 H        -3.908092         1.425051        -0.039982
 H        -2.504160        -0.208543         1.094911
 H        -1.801255        -0.885858        -0.511467
 H        -0.415362         3.092097         0.285652
 H        -1.973000         2.411185         1.363060
