19
Iteration:  3964charge 0 multiplicity 1
 O         0.354625         0.528184         0.785984
 C        -0.769309         0.999462         0.067533
 C        -0.691322         1.583137        -1.302590
 C        -1.964870         2.313229        -0.883255
 C        -2.933626         2.649387        -2.032478
 O        -3.371905         1.264960        -2.045631
 C        -2.956963         1.129667        -0.547501
 C        -2.024104         0.086527        -0.015813
 C        -1.291333         2.365337         0.524662
 H         0.701149         1.178831         1.473991
 H         0.028222         2.334056        -1.472184
 H        -0.660546         0.870726        -2.157207
 H        -3.875527         3.240627        -1.660963
 H        -2.632441         2.992927        -3.045469
 H        -3.842118         1.384115         0.167553
 H        -2.285215        -0.284250         0.934832
 H        -1.955256        -0.789977        -0.555701
 H        -0.362548         3.033555         0.517887
 H        -1.872983         2.419104         1.441761
