19
Iteration:  2767
 O         0.395862         0.463186         0.756495
 C        -0.808005         0.968434         0.088252
 C        -0.692675         1.560076        -1.291014
 C        -1.950649         2.297920        -0.907279
 C        -3.007442         2.679432        -1.834872
 O        -3.362410         1.298301        -2.044151
 C        -2.933679         1.127772        -0.647708
 C        -2.025816         0.045365        -0.039539
 C        -1.246320         2.534863         0.448923
 H         0.154946         0.330805         1.717869
 H         0.233923         2.126023        -1.535432
 H        -0.679844         0.785847        -2.115803
 H        -3.865182         3.237993        -1.315436
 H        -2.633567         3.192758        -2.708268
 H        -3.746283         1.422741        -0.055620
 H        -2.358180        -0.275656         1.021462
 H        -1.863851        -0.917788        -0.523316
 H        -0.431013         3.146057         0.286539
 H        -1.979554         2.795338         1.243176
