19
Iteration:  3758
 O         0.370765         0.639514         0.838171
 C        -0.797612         1.010718         0.187819
 C        -0.623366         1.514124        -1.228814
 C        -1.915230         2.244197        -0.908570
 C        -2.852361         2.635303        -1.991295
 O        -3.582375         1.369305        -1.993269
 C        -2.947986         1.079654        -0.663669
 C        -2.017147         0.008481        -0.045259
 C        -1.329226         2.459884         0.454524
 H         0.757255         0.111368         0.146409
 H         0.182650         2.175853        -1.447965
 H        -0.672793         0.731181        -2.054178
 H        -3.405114         3.494774        -1.815926
 H        -2.209979         2.803836        -2.895434
 H        -3.684955         1.301224         0.113618
 H        -2.305994        -0.570093         0.974001
 H        -1.616261        -0.774490        -0.797371
 H        -0.512911         3.229081         0.469878
 H        -1.975196         2.531459         1.361335
