19
Iteration:  4313
 O         0.363123         0.540749         0.908307
 C        -0.828481         0.999672         0.127354
 C        -0.779674         1.534454        -1.289753
 C        -1.965326         2.310718        -0.799898
 C        -2.989382         2.750219        -1.895119
 O        -3.334426         1.358827        -2.112145
 C        -2.908520         1.030314        -0.750629
 C        -1.908503        -0.050168        -0.080227
 C        -1.322132         2.446055         0.522493
 H         1.072542         1.139411         0.744457
 H         0.051828         2.137432        -1.545774
 H        -0.794910         0.844496        -2.124001
 H        -3.971328         3.201169        -1.460185
 H        -2.706130         3.278936        -2.800869
 H        -3.706943         1.215390        -0.048085
 H        -2.499017        -0.550630         0.742801
 H        -1.659355        -0.830847        -0.867960
 H        -0.452593         3.076533         0.536031
 H        -1.981179         2.435327         1.300279
