19
Iteration:  1813charge 0 multiplicity 1
 O         0.386405         0.419350         0.795224
 C        -0.746443         1.018461         0.104334
 C        -0.675375         1.655722        -1.272621
 C        -1.976362         2.352261        -0.893117
 C        -2.921644         2.633838        -2.042760
 O        -3.419877         1.265796        -1.924146
 C        -2.965242         1.191316        -0.563863
 C        -2.020189         0.064341        -0.055463
 C        -1.337668         2.455953         0.481824
 H         0.917657        -0.316586         0.343288
 H         0.109822         2.466701        -1.341289
 H        -0.733285         0.987771        -2.162275
 H        -3.690951         3.429601        -2.074949
 H        -2.360857         2.754252        -2.963606
 H        -3.775737         1.380043         0.151113
 H        -2.463715        -0.380497         0.858251
 H        -1.942909        -0.875725        -0.652274
 H        -0.514344         3.257589         0.686113
 H        -1.910113         2.469692         1.347408
