19
Iteration:  3413
 O         0.422393         0.597772         0.929466
 C        -0.717900         0.994358         0.158737
 C        -0.712688         1.522097        -1.399974
 C        -1.984169         2.265749        -0.859729
 C        -2.912094         2.758557        -2.001833
 O        -3.454383         1.450507        -1.996957
 C        -2.953028         1.024393        -0.709617
 C        -1.985843        -0.056049        -0.118882
 C        -1.367314         2.293773         0.515577
 H         0.652160         1.406736         1.364748
 H         0.023525         2.251987        -1.559391
 H        -0.778534         0.892820        -2.297237
 H        -3.710753         3.452511        -1.623825
 H        -2.519161         2.888704        -2.981843
 H        -3.632167         1.268412         0.086989
 H        -2.419700        -0.413387         0.839176
 H        -1.564681        -1.030311        -0.706666
 H        -0.653533         3.134039         0.751401
 H        -1.902925         2.337599         1.417349
