19
Iteration:  3921
 O         0.335888         0.418381         0.814046
 C        -0.768520         1.048591         0.167317
 C        -0.628489         1.509724        -1.252106
 C        -1.894892         2.259390        -0.943822
 C        -3.150325         2.665942        -1.954646
 O        -3.438751         1.302954        -2.038492
 C        -2.863932         1.107928        -0.675150
 C        -1.870413         0.077621        -0.012391
 C        -1.313986         2.560700         0.399560
 H         0.153012         0.344449         1.802061
 H         0.154612         2.158711        -1.407097
 H        -0.577758         0.689904        -1.982433
 H        -3.792427         3.334232        -1.166320
 H        -2.868112         3.082818        -2.950288
 H        -3.776184         1.489854         0.045559
 H        -2.363483        -0.336833         0.836271
 H        -1.606806        -0.619528        -0.713082
 H        -0.398490         3.254580         0.424204
 H        -2.002933         2.892227         1.171586
