19
Iteration:  3433charge 0 multiplicity 1
 O         0.331540         0.459624         0.851904
 C        -0.719139         1.034282         0.153389
 C        -0.664600         1.511592        -1.304364
 C        -2.008920         2.264982        -0.890920
 C        -2.962425         2.757646        -1.905814
 O        -3.527248         1.331501        -2.110296
 C        -2.877949         1.070385        -0.705116
 C        -1.852855         0.033594        -0.065763
 C        -1.330656         2.460377         0.541948
 H         0.458033         1.023270         1.611391
 H         0.105999         2.181945        -1.622358
 H        -0.829764         0.798363        -2.155742
 H        -3.732861         3.382490        -1.632022
 H        -2.475064         3.120499        -2.823142
 H        -3.784010         1.138599         0.009269
 H        -2.167458        -0.426895         0.841210
 H        -1.562150        -0.833735        -0.792307
 H        -0.530219         3.254456         0.658716
 H        -1.969268         2.699957         1.377032
