19
Iteration:    60charge 0 multiplicity 1
 O         0.229027         0.561565         0.916203
 C        -0.762555         1.046300         0.000694
 C        -0.566528         1.715318        -1.387767
 C        -1.959706         2.289063        -0.845034
 C        -2.976620         2.719089        -1.831147
 O        -3.467324         1.238350        -1.978211
 C        -2.872261         1.061427        -0.748777
 C        -1.878917         0.037160        -0.223341
 C        -1.431799         2.318494         0.639664
 H         1.168615         0.557361         0.488384
 H         0.199925         2.512254        -1.351481
 H        -0.710750         0.975425        -2.214285
 H        -3.766866         3.397487        -1.511932
 H        -2.561490         3.140790        -2.771760
 H        -3.542817         1.403671         0.110916
 H        -2.136464        -0.428800         0.751773
 H        -1.544160        -0.818420        -0.813623
 H        -0.454311         2.995830         0.833569
 H        -2.082973         1.820415         1.443655
