19
Iteration:  3642
 O         0.360392         0.572170         0.731304
 C        -0.779027         0.962297         0.095486
 C        -0.660961         1.514507        -1.350755
 C        -1.908289         2.293819        -0.852250
 C        -2.890571         2.628563        -2.007869
 O        -3.472321         1.315048        -2.032463
 C        -2.871584         1.168710        -0.635234
 C        -2.109856         0.084136         0.082252
 C        -1.325475         2.324178         0.551437
 H         0.692134         1.317356         1.220507
 H         0.251165         2.167020        -1.463919
 H        -0.646773         0.832605        -2.248864
 H        -3.819901         3.368102        -1.967931
 H        -2.343375         2.900158        -2.974588
 H        -3.681691         1.427559        -0.048986
 H        -2.368147         0.061198         1.112341
 H        -2.001102        -0.963092        -0.325816
 H        -0.482249         3.085266         0.634074
 H        -1.876865         2.484072         1.502619
