19
Iteration:   325
 O         0.511055         0.637796         0.665444
 C        -0.834157         0.942368         0.108246
 C        -0.643972         1.656722        -1.244883
 C        -2.055922         2.348324        -0.758843
 C        -2.965773         2.744386        -1.925912
 O        -3.293021         1.320971        -2.112991
 C        -2.950963         1.100433        -0.670468
 C        -1.993634        -0.026953        -0.194301
 C        -1.485796         2.262257         0.719833
 H         0.446511         0.635417         1.651358
 H         0.249901         2.257156        -1.359546
 H        -0.562175         0.896953        -2.007271
 H        -3.891542         3.377766        -1.867175
 H        -2.379498         3.125862        -2.692731
 H        -3.812901         1.246379         0.003058
 H        -2.213173        -0.768815         0.550430
 H        -1.733664        -0.647810        -1.063397
 H        -0.749217         2.837594         1.225257
 H        -2.287512         1.972393         1.528503
