19
Iteration:  3272
 O         0.364389         0.584466         0.827092
 C        -0.722678         1.000823         0.122168
 C        -0.602870         1.515240        -1.282409
 C        -2.012091         2.145013        -0.906182
 C        -2.833103         2.802080        -1.902309
 O        -3.550818         1.403896        -2.077756
 C        -2.984163         1.006864        -0.673344
 C        -1.946973         0.027537        -0.047882
 C        -1.379752         2.343694         0.521643
 H         1.051843         1.222388         0.871681
 H         0.113967         2.356636        -1.374710
 H        -0.450060         0.795434        -2.130837
 H        -3.573955         3.572797        -1.502498
 H        -2.478109         2.988221        -2.874478
 H        -3.833138         1.318950         0.073300
 H        -2.264585        -0.422992         0.831545
 H        -1.696020        -0.822903        -0.768759
 H        -0.683689         3.194675         0.803037
 H        -2.044729         2.479721         1.321889
