19
Iteration:  4613charge 0 multiplicity 1
 O         0.300595         0.397225         0.819410
 C        -0.804272         1.025662         0.200007
 C        -0.602697         1.682136        -1.281915
 C        -1.984021         2.339782        -0.905440
 C        -3.054316         2.692391        -1.940106
 O        -3.368833         1.211633        -2.058156
 C        -2.842467         1.121663        -0.665378
 C        -1.920157         0.061978        -0.140979
 C        -1.383711         2.411746         0.592286
 H         1.080971         0.922552         0.843278
 H         0.083060         2.486622        -1.278878
 H        -0.538215         1.088554        -2.206288
 H        -3.935734         3.260623        -1.688747
 H        -2.616077         3.175279        -2.841327
 H        -3.771081         1.334739        -0.026291
 H        -2.469957        -0.519437         0.636295
 H        -1.373887        -0.603483        -0.942650
 H        -0.689558         3.163408         0.896070
 H        -2.193178         2.510256         1.350293
