19
Iteration:  4470charge 0 multiplicity 1
 O         0.475770         0.530316         0.824723
 C        -0.756330         0.982569         0.133170
 C        -0.638346         1.645159        -1.270030
 C        -1.931615         2.252343        -0.836371
 C        -2.943518         2.689352        -1.970441
 O        -3.401062         1.306420        -2.056390
 C        -2.943252         1.072528        -0.729479
 C        -2.069964        -0.009154        -0.155178
 C        -1.472867         2.405979         0.636400
 H         0.903267         1.356828         0.972057
 H         0.239688         2.346418        -1.348880
 H        -0.669694         0.956681        -2.076781
 H        -3.650263         3.479485        -1.563346
 H        -2.383303         3.138341        -2.891776
 H        -3.757232         1.149039         0.046966
 H        -2.585878        -0.559040         0.732991
 H        -1.841584        -0.757482        -0.954427
 H        -0.780823         3.158472         0.882914
 H        -2.209642         2.467305         1.430305
