19
Iteration:    75
 O         0.394256         0.636072         0.934598
 C        -0.678407         0.975350         0.085608
 C        -0.682920         1.704918        -1.365663
 C        -1.976126         2.305463        -0.814243
 C        -2.993845         2.686906        -1.956078
 O        -3.423727         1.345626        -2.058160
 C        -2.925387         1.100806        -0.626772
 C        -1.926571        -0.025472        -0.214136
 C        -1.416507         2.232335         0.637707
 H         1.059261         0.153322         0.449990
 H         0.093663         2.453695        -1.526588
 H        -0.745863         1.120536        -2.269217
 H        -3.850402         3.346346        -1.564362
 H        -2.545849         2.997216        -2.877195
 H        -3.820508         1.144086         0.063353
 H        -2.276358        -0.603581         0.692476
 H        -1.795115        -0.660031        -1.118836
 H        -0.860179         2.981044         1.027994
 H        -2.200894         2.199085         1.371011
