19
Iteration:  4041
 O         0.306678         0.532937         0.926798
 C        -0.779634         1.017857         0.162222
 C        -0.641458         1.648282        -1.372887
 C        -1.953931         2.314479        -0.936339
 C        -3.102314         2.660199        -1.937592
 O        -3.354065         1.224320        -2.002756
 C        -2.909316         1.195136        -0.671937
 C        -1.924045         0.042850        -0.146858
 C        -1.251783         2.399686         0.534031
 H         0.444978        -0.440408         0.784627
 H         0.181931         2.333180        -1.509585
 H        -0.917531         0.974979        -2.265432
 H        -3.944825         3.077814        -1.394108
 H        -2.876382         3.012001        -2.928793
 H        -3.659984         1.439626         0.016219
 H        -2.319914        -0.124021         0.840202
 H        -1.735728        -0.920699        -0.639793
 H        -0.449672         3.245181         0.504872
 H        -1.824972         2.543523         1.464464
