19
Iteration:  4315charge 0 multiplicity 1
 O         0.366450         0.542578         0.906604
 C        -0.836362         0.986732         0.138531
 C        -0.795219         1.532688        -1.289548
 C        -1.987158         2.293716        -0.796348
 C        -2.963447         2.750110        -1.894288
 O        -3.342492         1.368048        -2.108597
 C        -2.910064         1.031220        -0.770899
 C        -1.894755        -0.033018        -0.076520
 C        -1.319518         2.441887         0.513274
 H         1.100321         1.189081         0.706390
 H         0.105200         2.178034        -1.520774
 H        -0.829842         0.876856        -2.142399
 H        -3.909631         3.183986        -1.411807
 H        -2.665345         3.274886        -2.864331
 H        -3.724268         1.141786         0.017721
 H        -2.519214        -0.559989         0.754466
 H        -1.604591        -0.820919        -0.818299
 H        -0.470386         3.064709         0.519671
 H        -2.000400         2.457026         1.326155
