19
Iteration:   359
 O         0.423803         0.470706         0.785049
 C        -0.754356         1.037726         0.144257
 C        -0.573132         1.753119        -1.237461
 C        -2.084836         2.283141        -0.781271
 C        -2.996962         2.753710        -1.836230
 O        -3.432661         1.342327        -2.111172
 C        -2.921058         0.971576        -0.763034
 C        -1.868060        -0.044881        -0.218973
 C        -1.444779         2.419017         0.573413
 H         0.075709         0.136119         1.593065
 H         0.148089         2.527800        -1.211177
 H        -0.515808         1.139162        -2.134900
 H        -3.896967         3.375579        -1.605481
 H        -2.367201         3.138790        -2.544344
 H        -3.813633         1.005807        -0.103623
 H        -2.191807        -0.511590         0.691205
 H        -1.445988        -0.671805        -1.041048
 H        -0.582320         3.043326         0.698093
 H        -2.162114         2.324791         1.522090
