19
Iteration:  1763charge 0 multiplicity 1
 O         0.438399         0.495067         0.888636
 C        -0.742773         0.979632         0.123322
 C        -0.688968         1.505640        -1.434191
 C        -1.984441         2.270820        -0.871835
 C        -3.066006         2.796565        -1.904094
 O        -3.352609         1.339288        -2.064662
 C        -2.891414         1.102934        -0.709394
 C        -1.995465         0.064466         0.066861
 C        -1.306718         2.443012         0.481981
 H         0.416455        -0.428129         1.103073
 H         0.048566         2.264994        -1.521085
 H        -0.868334         0.933513        -2.304674
 H        -4.036807         3.182339        -1.583887
 H        -2.896089         3.333928        -2.880082
 H        -3.740877         1.318482        -0.091208
 H        -2.414146        -0.251406         1.032858
 H        -1.972802        -0.903180        -0.426837
 H        -0.429956         3.110160         0.327882
 H        -1.971935         2.732027         1.351158
