19
Iteration:  1312
 O         0.365374         0.400591         0.688489
 C        -0.765008         0.968191         0.089044
 C        -0.580137         1.756535        -1.251872
 C        -1.968486         2.320285        -0.844737
 C        -3.077242         2.599527        -1.987481
 O        -3.297225         1.221840        -1.996195
 C        -2.875880         1.205281        -0.679177
 C        -2.011353         0.122254        -0.079107
 C        -1.392908         2.417745         0.614596
 H        -0.035114         0.096487         1.503799
 H         0.107341         2.614795        -1.158532
 H        -0.393193         1.116730        -2.159415
 H        -3.891495         3.133321        -1.463891
 H        -2.691618         3.058064        -2.904411
 H        -3.804680         1.381264         0.040735
 H        -2.405981        -0.403266         0.747572
 H        -1.788113        -0.733736        -0.805437
 H        -0.639174         3.299238         0.598679
 H        -2.100754         2.391806         1.404030
