19
Iteration:   851
 O         0.274178         0.462251         0.897422
 C        -0.748751         1.018428         0.138347
 C        -0.678265         1.635606        -1.297993
 C        -1.938184         2.288295        -0.899084
 C        -3.098090         2.703262        -1.852595
 O        -3.391607         1.276447        -2.096431
 C        -2.879009         1.096299        -0.641730
 C        -1.934445         0.055432        -0.095794
 C        -1.280319         2.432197         0.477625
 H         0.974273         0.150651         0.271179
 H         0.140170         2.374154        -1.541071
 H        -0.643417         1.081921        -2.250579
 H        -3.993668         3.317867        -1.455787
 H        -2.704619         3.146436        -2.782095
 H        -3.667508         1.219281         0.137513
 H        -2.300744        -0.303937         0.865210
 H        -1.628180        -0.657448        -0.798967
 H        -0.384407         3.016130         0.617213
 H        -1.846767         2.674239         1.402310
