19
Iteration:   341charge 0 multiplicity 1
 O         0.404275         0.595239         0.706415
 C        -0.753866         1.007883         0.159791
 C        -0.764032         1.643202        -1.221877
 C        -1.991150         2.256890        -0.757985
 C        -2.926264         2.743929        -1.954823
 O        -3.360174         1.346666        -2.084049
 C        -2.872899         1.052928        -0.698674
 C        -1.885680        -0.058980        -0.287592
 C        -1.462521         2.314078         0.760810
 H         0.377181         0.481782         1.628139
 H        -0.015808         2.463862        -1.260376
 H        -0.877396         1.158381        -2.207751
 H        -3.721236         3.400886        -1.625499
 H        -2.582963         3.208444        -2.969074
 H        -3.781976         1.121294        -0.086359
 H        -2.454290        -0.657195         0.485420
 H        -1.526085        -0.759569        -1.079341
 H        -0.701907         3.172395         0.811917
 H        -2.150561         2.415888         1.567056
