19
Iteration:  2754charge 0 multiplicity 1
 O         0.347441         0.386573         0.788541
 C        -0.661853         0.965069         0.136362
 C        -0.621643         1.508544        -1.392579
 C        -1.902293         2.323628        -0.895532
 C        -3.052450         2.749447        -1.882067
 O        -3.356633         1.281161        -2.010642
 C        -2.917171         1.116229        -0.594950
 C        -2.037666         0.010161        -0.020408
 C        -1.339934         2.601383         0.390433
 H         0.233201         0.580439         1.722390
 H         0.093425         2.387557        -1.369733
 H        -0.872718         0.897951        -2.339969
 H        -3.916746         3.252653        -1.275623
 H        -2.995425         3.245638        -2.910861
 H        -3.777678         1.262331         0.033146
 H        -2.482907        -0.342421         0.892525
 H        -1.864111        -0.702182        -0.762479
 H        -0.467574         3.125875         0.639283
 H        -2.009044         2.902357         1.245629
