19
Iteration:   955
 O         0.378951         0.343966         0.720373
 C        -0.688021         1.067602         0.144934
 C        -0.651385         1.601732        -1.333971
 C        -1.998444         2.289225        -0.851176
 C        -3.035549         2.696592        -1.923325
 O        -3.358238         1.307196        -2.082416
 C        -2.909809         1.065898        -0.634684
 C        -2.005386         0.081984        -0.027239
 C        -1.340535         2.530984         0.546108
 H         0.554278         0.734191         1.669240
 H         0.059711         2.412798        -1.488959
 H        -0.575765         0.686128        -1.967338
 H        -3.923583         3.254313        -1.372467
 H        -2.927532         3.065801        -3.014703
 H        -3.817091         1.258180        -0.121434
 H        -2.392816        -0.321814         0.981050
 H        -1.843450        -0.906934        -0.628262
 H        -0.440270         3.296356         0.521144
 H        -2.082382         2.684576         1.379786
