19
Iteration:  1648charge 0 multiplicity 1
 O         0.444354         0.486745         0.817132
 C        -0.746806         0.987876         0.175680
 C        -0.688961         1.543322        -1.355484
 C        -1.893151         2.323535        -0.887361
 C        -3.043748         2.721184        -1.911340
 O        -3.349049         1.282383        -2.041790
 C        -2.918014         1.154948        -0.652839
 C        -2.051459         0.006731        -0.058604
 C        -1.350274         2.487228         0.463729
 H         0.091483        -0.306336         1.248513
 H         0.142228         2.272183        -1.514405
 H        -0.889511         0.727041        -2.108651
 H        -3.918403         3.333757        -1.563322
 H        -2.640146         3.223796        -2.804751
 H        -3.726140         1.437067         0.062189
 H        -2.395034        -0.370398         0.839966
 H        -1.946478        -0.884217        -0.637396
 H        -0.546756         3.295426         0.690442
 H        -1.990067         2.863899         1.314797
