19
Iteration:  4642
 O         0.224640         0.336565         0.805250
 C        -0.712095         0.947630         0.112283
 C        -0.519334         1.711190        -1.265776
 C        -1.994397         2.374864        -0.852766
 C        -3.073979         2.615582        -1.905286
 O        -3.341566         1.182551        -2.081203
 C        -2.859217         1.090170        -0.657013
 C        -1.931922         0.087667        -0.170779
 C        -1.445570         2.581008         0.610714
 H         1.108304         0.795675         0.895834
 H         0.212061         2.643080        -1.278382
 H        -0.420373         1.244117        -2.280498
 H        -3.927284         3.164380        -1.395573
 H        -2.701813         3.256669        -2.757641
 H        -3.742079         1.288940        -0.024991
 H        -2.388807        -0.299436         0.795038
 H        -1.585113        -0.657194        -0.818267
 H        -0.551866         3.355829         0.700676
 H        -2.310742         2.584636         1.342429
