19
Iteration:  4556
 O         0.397359         0.544074         0.802429
 C        -0.777016         1.017837         0.123633
 C        -0.654373         1.570857        -1.222132
 C        -1.960254         2.248475        -0.889231
 C        -2.972628         2.721950        -1.896281
 O        -3.392901         1.338113        -2.141080
 C        -2.913283         1.103791        -0.743152
 C        -1.942000        -0.051308        -0.124219
 C        -1.437239         2.392524         0.690738
 H         0.989124         1.350898         0.875208
 H         0.211900         2.252994        -1.449323
 H        -0.896469         0.838155        -1.962446
 H        -3.858631         3.238461        -1.584913
 H        -2.495235         3.126730        -2.809968
 H        -3.815806         1.321467        -0.054512
 H        -2.469686        -0.479736         0.840386
 H        -1.520085        -0.942691        -0.671042
 H        -0.624987         3.212349         0.803148
 H        -2.321357         2.508839         1.377281
