19
Iteration:  3031
 O         0.470876         0.603756         0.817203
 C        -0.708937         0.939156         0.107831
 C        -0.653868         1.474069        -1.340873
 C        -2.001935         2.260505        -0.874699
 C        -2.912402         2.746414        -1.919389
 O        -3.498783         1.439393        -2.069800
 C        -2.943497         1.098810        -0.666649
 C        -2.018787        -0.041805        -0.047249
 C        -1.367330         2.339893         0.492602
 H         0.447232         0.899694         1.785149
 H         0.088774         2.314715        -1.380819
 H        -0.528157         0.642188        -2.095286
 H        -3.654328         3.495150        -1.578882
 H        -2.451603         3.158941        -2.810772
 H        -3.745848         1.244963        -0.008610
 H        -2.371766        -0.137250         0.908682
 H        -2.008569        -0.985073        -0.569177
 H        -0.581994         3.171804         0.656332
 H        -2.077484         2.296615         1.328844
