19
Iteration:  4491charge 0 multiplicity 1
 O         0.256482         0.387775         0.793060
 C        -0.751272         1.057325         0.147932
 C        -0.714086         1.669695        -1.220266
 C        -2.030811         2.297953        -0.792280
 C        -3.006779         2.700957        -2.052021
 O        -3.394983         1.272271        -2.084801
 C        -2.901416         1.109207        -0.678174
 C        -1.799151         0.046253        -0.114816
 C        -1.370500         2.409111         0.592985
 H         1.001079         0.981882         1.034836
 H         0.121571         2.398592        -1.156900
 H        -0.654617         1.008105        -2.051034
 H        -3.829217         3.413946        -1.863949
 H        -2.336087         3.059684        -2.875634
 H        -3.749538         1.347689         0.050348
 H        -2.042282        -0.582077         0.839974
 H        -1.381605        -0.663172        -0.875009
 H        -0.640749         3.204844         0.702491
 H        -2.006947         2.371607         1.481351
