19
Iteration:  1896charge 0 multiplicity 1
 O         0.175737         0.395443         0.848153
 C        -0.726559         1.071282         0.075718
 C        -0.646650         1.495429        -1.407351
 C        -1.970315         2.280275        -0.931412
 C        -3.091143         2.666895        -1.874125
 O        -3.411233         1.261214        -2.022871
 C        -2.848104         1.168627        -0.617057
 C        -1.898178         0.156200        -0.027392
 C        -1.155862         2.472790         0.497331
 H         0.752713         0.883564         1.401230
 H         0.176370         2.147699        -1.615217
 H        -0.796556         0.811035        -2.245559
 H        -3.860519         3.347279        -1.366328
 H        -2.901326         3.003888        -2.923342
 H        -3.813147         1.334477         0.109229
 H        -2.468790        -0.135762         0.938196
 H        -1.742744        -0.703211        -0.682759
 H        -0.319690         3.081322         0.322531
 H        -1.831606         2.574413         1.488619
