19
Iteration:  2897
 O         0.347542         0.597307         0.765471
 C        -0.761471         1.051292         0.134822
 C        -0.663376         1.441511        -1.308512
 C        -1.958375         2.226582        -0.883811
 C        -2.983003         2.799356        -1.820511
 O        -3.468804         1.341482        -2.075167
 C        -2.904817         1.053537        -0.691657
 C        -1.979022        -0.036433        -0.075176
 C        -1.261482         2.402038         0.453720
 H         0.247020         0.894342         1.735604
 H         0.192346         2.197064        -1.395807
 H        -0.629153         0.606670        -2.117627
 H        -3.679174         3.516291        -1.372535
 H        -2.613498         3.301004        -2.692811
 H        -3.785860         1.428684        -0.036417
 H        -2.383955        -0.255446         0.815529
 H        -1.638349        -0.869627        -0.573159
 H        -0.421649         2.960553         0.675974
 H        -1.824133         2.538831         1.420295
