19
Iteration:   390charge 0 multiplicity 1
 O         0.378111         0.423290         0.848242
 C        -0.754029         1.093496         0.137303
 C        -0.562883         1.757120        -1.248176
 C        -1.931897         2.370028        -0.907770
 C        -3.127795         2.691883        -1.821035
 O        -3.407036         1.274370        -2.063681
 C        -2.834216         1.088635        -0.808955
 C        -1.858078         0.013331        -0.204002
 C        -1.466448         2.354714         0.588156
 H         0.056664        -0.457226         1.225310
 H         0.299910         2.429556        -1.233537
 H        -0.643167         1.186286        -2.187071
 H        -3.979948         3.191933        -1.253283
 H        -2.980111         3.343888        -2.650059
 H        -3.701985         1.315956        -0.159184
 H        -2.268188        -0.443323         0.671693
 H        -1.536438        -0.724931        -0.931367
 H        -0.749661         2.974410         0.979365
 H        -2.215589         2.189640         1.375098
