19
Iteration:   832charge 0 multiplicity 1
 O         0.383108         0.533149         0.901609
 C        -0.711134         0.983853         0.022961
 C        -0.623107         1.582222        -1.345100
 C        -2.028783         2.329641        -0.821206
 C        -3.034031         2.703463        -1.935444
 O        -3.328852         1.250266        -2.011828
 C        -2.973644         1.158377        -0.683291
 C        -2.033382         0.036630        -0.111572
 C        -1.296663         2.423412         0.614142
 H         0.905134        -0.183791         0.352701
 H         0.218301         2.310336        -1.578657
 H        -0.647648         0.879556        -2.286064
 H        -3.927384         3.206487        -1.416841
 H        -2.882956         3.187153        -2.904579
 H        -3.914136         1.290841        -0.176954
 H        -2.471075        -0.346971         0.837487
 H        -1.876698        -0.742062        -0.924455
 H        -0.611807         3.422568         0.606753
 H        -1.859697         2.427423         1.598150
