19
Iteration:  2306charge 0 multiplicity 1
 O         0.486136         0.445661         0.690217
 C        -0.730595         0.974081         0.078260
 C        -0.644356         1.596166        -1.349385
 C        -1.981115         2.247980        -0.889794
 C        -2.874481         2.708216        -2.004584
 O        -3.492974         1.262463        -1.954966
 C        -2.954136         1.188815        -0.596479
 C        -2.029573         0.132573         0.047388
 C        -1.389160         2.450151         0.514747
 H         0.252366        -0.122630         1.467209
 H         0.049441         2.363736        -1.564969
 H        -0.731023         0.825741        -2.065538
 H        -3.745192         3.334886        -1.785458
 H        -2.140565         2.887227        -2.758017
 H        -3.831889         1.460790         0.157285
 H        -2.458776        -0.090054         1.023551
 H        -1.982241        -0.807546        -0.469666
 H        -0.522917         3.239665         0.545525
 H        -2.147167         2.596995         1.299568
