19
Iteration:  2446charge 0 multiplicity 1
 O         0.411707         0.580388         0.574140
 C        -0.801160         1.008118         0.162211
 C        -0.691681         1.481704        -1.282976
 C        -1.947662         2.221057        -0.858541
 C        -2.816220         2.701107        -2.053885
 O        -3.517375         1.336949        -1.977577
 C        -2.995874         1.106652        -0.571327
 C        -1.998297         0.046442         0.028311
 C        -1.279491         2.493166         0.601124
 H         0.191642        -0.088997         1.223721
 H         0.075450         2.272412        -1.505284
 H        -0.818947         0.757410        -2.093473
 H        -3.390058         3.581535        -1.843603
 H        -2.237871         2.673973        -2.934450
 H        -3.880902         1.257703        -0.014725
 H        -2.538863        -0.155745         0.998497
 H        -1.743931        -0.966676        -0.467597
 H        -0.339559         3.163467         0.564997
 H        -1.876402         2.729538         1.444552
