19
Iteration:  3645charge 0 multiplicity 1
 O         0.354144         0.575174         0.734093
 C        -0.763488         0.970650         0.072166
 C        -0.660038         1.506832        -1.358126
 C        -1.901542         2.296417        -0.859227
 C        -2.910715         2.642719        -2.024719
 O        -3.454730         1.301294        -2.033070
 C        -2.905040         1.160204        -0.651447
 C        -2.128383         0.072453         0.065814
 C        -1.284278         2.336396         0.570792
 H         0.793895         1.230933         1.293837
 H         0.255689         2.165102        -1.394572
 H        -0.752652         0.830977        -2.165572
 H        -3.754200         3.323617        -1.865897
 H        -2.386599         2.933914        -2.877015
 H        -3.796283         1.445748        -0.015881
 H        -2.393429         0.114953         1.233955
 H        -1.876757        -0.949462        -0.236488
 H        -0.521913         3.112654         0.723432
 H        -1.932627         2.529724         1.517092
