19
Iteration:  3678charge 0 multiplicity 1
 O         0.335151         0.341322         0.784104
 C        -0.721674         1.035780         0.149718
 C        -0.726332         1.478206        -1.294337
 C        -2.021208         2.308021        -0.838206
 C        -3.039804         2.649506        -1.965861
 O        -3.316960         1.271073        -2.117143
 C        -2.889402         1.173293        -0.597912
 C        -1.994047         0.140228         0.042478
 C        -1.300343         2.563147         0.428216
 H         0.902131         0.748192         1.395204
 H         0.174309         2.148192        -1.491345
 H        -0.884880         0.774148        -2.066551
 H        -3.927078         3.242249        -1.574195
 H        -2.492072         3.150700        -2.692424
 H        -3.767438         1.465034         0.017578
 H        -2.395273        -0.380812         1.083355
 H        -1.668393        -0.709184        -0.547490
 H        -0.513318         3.212880         0.052639
 H        -2.018037         2.958764         1.279780
