19
Iteration:   529charge 0 multiplicity 1
 O         0.315235         0.361264         0.820331
 C        -0.648237         1.054206         0.090553
 C        -0.699383         1.737757        -1.279114
 C        -2.090461         2.328534        -0.823535
 C        -2.974369         2.748061        -1.913829
 O        -3.417471         1.315916        -2.084112
 C        -2.939074         1.046223        -0.673373
 C        -1.802067         0.005523        -0.185759
 C        -1.416578         2.347844         0.602515
 H         0.897375         1.001005         1.326560
 H         0.114588         2.462242        -1.491087
 H        -0.723549         1.047985        -2.163728
 H        -3.705445         3.391267        -1.606663
 H        -2.463108         3.249670        -2.798870
 H        -3.736732         0.917572         0.060746
 H        -2.165596        -0.349501         0.815543
 H        -1.433314        -0.811312        -0.849954
 H        -0.841484         3.335667         0.839717
 H        -2.082588         2.290912         1.495649
