19
Iteration:   942charge 0 multiplicity 1
 O         0.375062         0.343954         0.750149
 C        -0.709222         1.060967         0.123072
 C        -0.694906         1.615721        -1.304336
 C        -2.009559         2.262259        -0.876794
 C        -2.976050         2.755500        -1.952668
 O        -3.380623         1.228871        -2.051688
 C        -2.969846         1.145149        -0.617546
 C        -1.934094         0.034654        -0.022920
 C        -1.354680         2.505094         0.513464
 H         0.663159         0.721448         1.534887
 H         0.056672         2.300563        -1.577225
 H        -0.764560         1.017115        -2.232098
 H        -3.867649         3.455774        -1.614689
 H        -2.457223         3.230344        -2.809606
 H        -3.815164         1.408830         0.135162
 H        -2.182749        -0.426084         0.946142
 H        -1.686120        -0.732397        -0.717507
 H        -0.721707         3.429830         0.643082
 H        -1.967389         2.461514         1.385097
