19
Iteration:   144charge 0 multiplicity 1
 O         0.440626         0.340823         0.773643
 C        -0.710521         0.956626         0.089618
 C        -0.665918         1.857972        -1.328195
 C        -2.069042         2.410449        -0.753170
 C        -3.161934         2.705174        -1.918120
 O        -3.212077         1.230764        -2.115329
 C        -2.897911         1.114563        -0.698696
 C        -1.948400         0.084118        -0.139272
 C        -1.437450         2.289727         0.677156
 H         0.790648         0.970882         1.398926
 H         0.209628         2.514242        -1.482946
 H        -0.796265         1.187024        -2.230146
 H        -4.139674         3.063934        -1.588139
 H        -2.763484         3.206416        -2.878035
 H        -3.860862         1.304910        -0.223327
 H        -2.379176        -0.249443         0.783710
 H        -1.744690        -0.764367        -0.805528
 H        -0.757283         3.050741         1.103722
 H        -2.124224         2.134145         1.453324
