19
Iteration:  1439
 O         0.349437         0.316683         0.693908
 C        -0.699982         1.067081         0.162311
 C        -0.607315         1.801660        -1.264642
 C        -2.036318         2.385104        -0.792341
 C        -3.013331         2.670410        -2.002304
 O        -3.360404         1.213256        -2.048112
 C        -2.878913         1.059346        -0.659595
 C        -1.973633        -0.001588        -0.098633
 C        -1.381273         2.518558         0.571397
 H        -0.005173        -0.090122         1.486401
 H         0.035966         2.648511        -1.263316
 H        -0.423058         1.099029        -2.100873
 H        -3.861507         3.342421        -1.763051
 H        -2.510972         3.070426        -2.887721
 H        -3.801935         1.161083         0.126936
 H        -2.312013        -0.348750         0.839805
 H        -1.833470        -0.821957        -0.770145
 H        -0.573490         3.185847         0.815568
 H        -2.057546         2.856642         1.403102
