19
Iteration:  4795charge 0 multiplicity 1
 O         0.386841         0.513961         0.808795
 C        -0.818446         0.991885         0.168211
 C        -0.602985         1.640455        -1.241450
 C        -1.936632         2.313374        -0.850384
 C        -2.929553         2.625561        -1.941598
 O        -3.387197         1.303807        -2.099040
 C        -2.942756         1.078819        -0.683999
 C        -1.986322         0.044844        -0.143975
 C        -1.447014         2.395187         0.602852
 H         1.143154         1.151446         0.780377
 H         0.286116         2.379987        -1.172727
 H        -0.798236         1.021047        -2.141357
 H        -3.820832         3.309448        -1.595320
 H        -2.734019         2.967832        -2.991761
 H        -3.804723         1.316029         0.090837
 H        -2.392121        -0.722053         0.546772
 H        -1.582985        -0.580345        -0.883806
 H        -0.769990         3.265430         0.869253
 H        -2.168774         2.316386         1.447048
