19
Iteration:  1839
 O         0.382152         0.523013         0.802538
 C        -0.785077         1.052161         0.170388
 C        -0.596212         1.545948        -1.322813
 C        -1.912714         2.225332        -0.945571
 C        -2.896912         2.698536        -2.073502
 O        -3.618359         1.353627        -1.962279
 C        -2.973040         1.151803        -0.629306
 C        -1.947120         0.043241        -0.025667
 C        -1.338039         2.362749         0.597424
 H         1.204221         0.394669         0.227149
 H         0.234729         2.204554        -1.411893
 H        -0.697658         0.839840        -2.113555
 H        -3.455273         3.665015        -1.954759
 H        -2.340044         2.606558        -3.042454
 H        -3.803037         1.384464         0.230992
 H        -2.496391        -0.233208         0.845317
 H        -1.659730        -0.818918        -0.634726
 H        -0.545966         3.151971         0.775074
 H        -1.896629         2.419179         1.609473
