19
Iteration:   690charge 0 multiplicity 1
 O         0.382064         0.457351         0.846609
 C        -0.744430         0.999792         0.113796
 C        -0.681631         1.655430        -1.290896
 C        -2.011900         2.205410        -0.796806
 C        -2.939000         2.722506        -1.958303
 O        -3.490269         1.370185        -2.071759
 C        -2.914890         1.036508        -0.735630
 C        -1.861398         0.014267        -0.084193
 C        -1.407221         2.384270         0.591647
 H         1.070934         1.211036         0.639975
 H         0.257957         2.212020        -1.391890
 H        -0.886349         1.129200        -2.231405
 H        -3.638381         3.455282        -1.521920
 H        -2.586121         3.189498        -2.882759
 H        -3.877732         1.209549        -0.126209
 H        -2.305182        -0.294073         0.933902
 H        -1.508171        -0.839494        -0.738578
 H        -0.725086         3.303982         0.613653
 H        -1.962548         2.550459         1.455913
