19
Iteration:  3248
 O         0.277222         0.416550         0.955642
 C        -0.724410         1.003293         0.131917
 C        -0.640357         1.643215        -1.350632
 C        -1.960505         2.359135        -0.911279
 C        -3.019424         2.717836        -1.953768
 O        -3.509188         1.328546        -1.975889
 C        -2.830308         1.079651        -0.721041
 C        -1.919439        -0.042656        -0.142222
 C        -1.342741         2.446985         0.518793
 H         1.137532         0.833171         1.020949
 H         0.251458         2.195244        -1.412274
 H        -0.729765         0.956924        -2.194216
 H        -3.873821         3.493632        -1.707224
 H        -2.674400         2.870863        -2.979606
 H        -3.536636         1.383277         0.097167
 H        -2.370804        -0.550273         0.706430
 H        -1.474071        -0.875197        -0.809797
 H        -0.512407         3.149362         0.588637
 H        -1.882354         2.723618         1.379811
