19
Iteration:   237
 O         0.325097         0.627958         0.869178
 C        -0.787832         0.954383         0.003095
 C        -0.608515         1.792454        -1.260045
 C        -1.976130         2.286055        -0.808823
 C        -3.017745         2.731485        -1.903777
 O        -3.367790         1.304450        -2.009051
 C        -2.857817         1.059322        -0.701227
 C        -1.907528        -0.045214        -0.291405
 C        -1.445125         2.278213         0.625794
 H         0.338793        -0.320059         1.194354
 H         0.184893         2.586261        -1.144993
 H        -0.382734         1.433654        -2.322795
 H        -3.874563         3.220084        -1.394285
 H        -2.764549         3.184144        -2.822412
 H        -3.666722         1.260219         0.039184
 H        -2.313026        -0.542177         0.611809
 H        -1.650744        -0.758196        -1.088281
 H        -0.595677         2.984066         0.790072
 H        -1.996969         1.955814         1.631661
