19
Iteration:  4230charge 0 multiplicity 1
 O         0.404646         0.503231         0.836899
 C        -0.794164         1.022593         0.176723
 C        -0.674727         1.639064        -1.280513
 C        -2.015338         2.275942        -0.805896
 C        -2.812683         2.666746        -2.040579
 O        -3.525831         1.280246        -2.060034
 C        -2.936299         1.123639        -0.535558
 C        -1.915947         0.021397        -0.191466
 C        -1.396742         2.357795         0.550364
 H         1.117340         1.124426         0.508005
 H         0.107962         2.447043        -1.165377
 H        -0.825359         0.913265        -2.047275
 H        -3.478074         3.453171        -1.824107
 H        -2.287936         2.862655        -3.038557
 H        -3.777572         1.446386         0.046145
 H        -2.429341        -0.595932         0.559363
 H        -1.776613        -0.596126        -1.019555
 H        -0.633945         3.117105         0.842104
 H        -2.144733         2.594367         1.459262
