19
Iteration:  3494
 O         0.405275         0.502954         0.674418
 C        -0.749306         1.058498         0.148634
 C        -0.697122         1.566329        -1.305760
 C        -1.987625         2.318837        -0.858925
 C        -2.905247         2.668893        -2.069659
 O        -3.351534         1.279347        -2.016434
 C        -2.991509         1.091779        -0.604345
 C        -1.997177         0.104975         0.011176
 C        -1.329631         2.409135         0.640802
 H         0.119666        -0.062591         1.385151
 H         0.012455         2.404690        -1.532070
 H        -0.804328         0.867720        -2.141694
 H        -3.781439         3.446713        -1.966100
 H        -2.453720         2.895309        -3.084241
 H        -3.797364         1.381268         0.009541
 H        -2.326212        -0.263967         1.052081
 H        -1.796676        -0.710678        -0.614762
 H        -0.600913         3.145240         0.659321
 H        -2.145184         2.355421         1.381097
