19
Iteration:  2772
 O         0.402902         0.490959         0.735289
 C        -0.833834         0.988893         0.111331
 C        -0.678408         1.540663        -1.330442
 C        -1.973460         2.258969        -0.872016
 C        -2.982101         2.725726        -1.858764
 O        -3.382741         1.289800        -2.061679
 C        -2.911966         1.099863        -0.656180
 C        -2.030498         0.080902        -0.021349
 C        -1.247934         2.495262         0.490683
 H         0.102172         0.251197         1.633280
 H         0.216246         2.146026        -1.407169
 H        -0.738973         0.717821        -2.006727
 H        -3.809813         3.215584        -1.412070
 H        -2.743222         3.095225        -2.892323
 H        -3.743791         1.559979         0.033231
 H        -2.398688        -0.224499         0.965447
 H        -1.760605        -0.879521        -0.555644
 H        -0.374261         3.254848         0.287611
 H        -1.782771         2.682599         1.430290
