19
Iteration:   406
 O         0.320522         0.565028         0.801947
 C        -0.768227         0.911473         0.112107
 C        -0.589411         1.709382        -1.329797
 C        -1.957736         2.341694        -0.789462
 C        -3.068134         2.764468        -1.818514
 O        -3.349797         1.237260        -2.069307
 C        -2.800089         1.109858        -0.702838
 C        -1.905052        -0.011085        -0.280819
 C        -1.482717         2.385465         0.677576
 H         0.246975        -0.435802         1.038899
 H         0.221580         2.446778        -1.269123
 H        -0.496186         0.991690        -2.144461
 H        -3.937883         3.250509        -1.460846
 H        -2.813240         3.198060        -2.858749
 H        -3.563528         1.226203         0.095866
 H        -2.418269        -0.504583         0.602230
 H        -1.501418        -0.650303        -1.135211
 H        -0.669626         3.252857         0.821853
 H        -2.352137         2.452161         1.389002
