19
Iteration:  2488
 O         0.388124         0.400073         0.751604
 C        -0.755762         1.000018         0.080763
 C        -0.679353         1.577135        -1.333842
 C        -1.901198         2.392359        -0.920260
 C        -3.022879         2.697415        -1.962770
 O        -3.426707         1.250638        -1.956704
 C        -2.884979         1.147856        -0.629531
 C        -2.085976         0.046101        -0.007051
 C        -1.256104         2.499423         0.493389
 H         0.402160         0.668207         1.658867
 H         0.391506         2.010628        -1.451039
 H        -0.821045         0.836265        -2.170517
 H        -3.784395         3.273035        -1.457051
 H        -2.878112         3.011294        -3.032050
 H        -3.716499         1.480374         0.151834
 H        -2.388120        -0.277799         0.942031
 H        -1.862983        -0.910715        -0.569849
 H        -0.332530         3.099830         0.553485
 H        -1.968623         2.666350         1.223731
