19
Iteration:  2391charge 0 multiplicity 1
 O         0.271857         0.394703         0.769513
 C        -0.726719         1.066735         0.063957
 C        -0.602982         1.566585        -1.342265
 C        -1.903740         2.326709        -0.935875
 C        -3.064626         2.656171        -1.873414
 O        -3.486401         1.241469        -1.972782
 C        -2.860571         1.162538        -0.647023
 C        -1.968324         0.145126         0.020262
 C        -1.209896         2.438389         0.446045
 H        -0.112513         0.348716         1.630030
 H         0.306728         2.195866        -1.526598
 H        -0.740030         0.879454        -2.175304
 H        -3.842390         3.403403        -1.439491
 H        -2.743847         3.061922        -2.845548
 H        -3.653626         1.449111        -0.013019
 H        -2.532460        -0.205663         0.917485
 H        -1.599986        -0.811479        -0.544462
 H        -0.400239         3.245818         0.370917
 H        -1.818957         2.497934         1.315440
