19
Iteration:  4334charge 0 multiplicity 1
 O         0.378352         0.543928         0.829966
 C        -0.746872         1.060632         0.166820
 C        -0.691279         1.563895        -1.294580
 C        -2.002681         2.181135        -0.790802
 C        -2.880516         2.807677        -1.909836
 O        -3.453553         1.383793        -2.158328
 C        -2.976623         0.950460        -0.689397
 C        -1.917597        -0.029881        -0.056872
 C        -1.414049         2.395060         0.584714
 H         1.180523         1.149441         0.692956
 H        -0.039842         2.340110        -1.591325
 H        -0.638499         0.848590        -2.132359
 H        -3.671139         3.613944        -1.858040
 H        -2.199077         3.108440        -2.666104
 H        -3.885184         1.120569        -0.187885
 H        -2.354107        -0.342514         0.907166
 H        -1.628490        -0.947309        -0.670609
 H        -0.640019         3.167607         0.381893
 H        -1.984759         2.541263         1.482442
