19
Iteration:  4792
 O         0.359409         0.502320         0.813273
 C        -0.821112         0.990748         0.156399
 C        -0.609379         1.651566        -1.234028
 C        -1.917612         2.300007        -0.848579
 C        -2.953324         2.627066        -1.923814
 O        -3.374286         1.281464        -2.091585
 C        -2.927895         1.093334        -0.665828
 C        -1.977408         0.071658        -0.169426
 C        -1.449836         2.412245         0.592945
 H         1.131792         1.133574         0.754850
 H         0.179349         2.442237        -1.190122
 H        -0.683399         1.018520        -2.126077
 H        -3.794810         3.287715        -1.623324
 H        -2.737389         2.925165        -2.993455
 H        -3.865156         1.357185         0.031581
 H        -2.467409        -0.732348         0.545183
 H        -1.517347        -0.636054        -0.935541
 H        -0.714342         3.217597         0.840279
 H        -2.028297         2.277832         1.480253
