19
Iteration:   731charge 0 multiplicity 1
 O         0.302708         0.440571         0.799443
 C        -0.742604         0.972613         0.100421
 C        -0.642043         1.676472        -1.307583
 C        -1.898709         2.363423        -0.871778
 C        -3.031817         2.652996        -1.839381
 O        -3.379810         1.257186        -2.010533
 C        -2.842365         1.117691        -0.656461
 C        -1.962744         0.004893        -0.179138
 C        -1.413704         2.445767         0.492086
 H         0.310319         0.787722         1.673834
 H         0.251566         2.469137        -1.403942
 H        -0.706056         1.068422        -2.299118
 H        -3.842658         3.206441        -1.287608
 H        -2.907639         3.036370        -2.849152
 H        -3.655459         1.528677        -0.017525
 H        -2.336919        -0.449265         0.784032
 H        -1.688465        -0.696472        -0.954181
 H        -0.448561         3.157129         0.542237
 H        -1.946105         2.509347         1.547821
