19
Iteration:  1161charge 0 multiplicity 1
 O         0.392274         0.498824         0.662191
 C        -0.779819         0.986999         0.137035
 C        -0.647579         1.665034        -1.218250
 C        -1.951580         2.365689        -0.869085
 C        -2.935021         2.603945        -2.012793
 O        -3.416877         1.283993        -2.020479
 C        -2.890872         1.144733        -0.616218
 C        -2.019686         0.010796        -0.088877
 C        -1.380625         2.424509         0.619134
 H         0.176142        -0.010757         1.467901
 H         0.181925         2.374358        -1.352401
 H        -0.476720         0.978056        -2.093213
 H        -3.774490         3.301083        -1.882803
 H        -2.465419         2.977800        -2.946511
 H        -3.635242         1.497461         0.104561
 H        -2.571260        -0.408722         0.953955
 H        -1.736428        -0.727812        -0.872325
 H        -0.586194         3.271694         0.720852
 H        -2.067238         2.397256         1.437379
