19
Iteration:  1080
 O         0.324725         0.443546         0.761916
 C        -0.739543         1.031130         0.123373
 C        -0.654323         1.611134        -1.328828
 C        -1.918731         2.364384        -0.913687
 C        -3.062937         2.639728        -1.919363
 O        -3.352981         1.293764        -2.019310
 C        -2.894238         1.117446        -0.599173
 C        -1.977396         0.061266        -0.094704
 C        -1.302352         2.426020         0.531822
 H         0.016211         0.417368         1.736080
 H         0.200180         2.326533        -1.507334
 H        -0.739331         0.881969        -2.164068
 H        -3.771828         3.373294        -1.434106
 H        -2.802271         3.032157        -2.915551
 H        -3.701177         1.347251        -0.016980
 H        -2.408321        -0.509175         0.807948
 H        -1.621507        -0.779241        -0.816403
 H        -0.627827         3.262189         0.664191
 H        -2.104365         2.431731         1.387461
