19
Iteration:  4107charge 0 multiplicity 1
 O         0.458601         0.516623         0.722576
 C        -0.726725         0.945322         0.148448
 C        -0.641222         1.614316        -1.199000
 C        -1.928682         2.318379        -0.862109
 C        -2.933415         2.693965        -2.056645
 O        -3.591362         1.312953        -2.064407
 C        -2.950657         1.119329        -0.650826
 C        -1.938734         0.019713        -0.074403
 C        -1.438512         2.403354         0.592143
 H         0.785706         1.000862         1.514479
 H         0.246881         2.260346        -1.173527
 H        -0.526113         0.922428        -2.102040
 H        -3.663937         3.379799        -1.963331
 H        -2.238797         2.773337        -2.884876
 H        -3.667905         1.374907         0.029140
 H        -2.222431        -0.384992         0.917802
 H        -1.624614        -0.883239        -0.615660
 H        -0.791677         3.320250         0.727370
 H        -2.098074         2.185098         1.462398
