19
Iteration:   987charge 0 multiplicity 1
 O         0.402475         0.576428         0.730378
 C        -0.742877         1.001577         0.090115
 C        -0.694044         1.564050        -1.339240
 C        -1.954082         2.283088        -0.892856
 C        -2.957583         2.829519        -1.885517
 O        -3.376102         1.226495        -2.080791
 C        -2.883367         1.109833        -0.611067
 C        -2.050163        -0.000617         0.005591
 C        -1.327206         2.383385         0.545366
 H         0.184195         0.391522         1.635036
 H         0.102690         2.257883        -1.525389
 H        -0.597248         0.777103        -2.092288
 H        -3.896079         3.303818        -1.470605
 H        -2.870749         3.205917        -2.942759
 H        -3.875471         1.381809        -0.046096
 H        -2.456532        -0.387012         0.942512
 H        -1.899752        -0.833538        -0.700249
 H        -0.411750         3.062751         0.691674
 H        -1.994057         2.538885         1.379988
