19
Iteration:   289
 O         0.429325         0.451242         0.669991
 C        -0.754617         1.022863         0.109371
 C        -0.629764         1.806963        -1.214129
 C        -2.040015         2.316499        -0.752981
 C        -3.073959         2.762050        -1.866542
 O        -3.344688         1.328790        -2.230504
 C        -2.903512         0.959545        -0.743156
 C        -1.872804        -0.039394        -0.041627
 C        -1.462048         2.394213         0.681793
 H         0.319967        -0.173060         1.396667
 H         0.195979         2.619884        -1.078608
 H        -0.487647         1.026816        -2.026000
 H        -4.035737         3.245602        -1.603806
 H        -2.500014         3.248635        -2.741915
 H        -3.900655         1.091315        -0.282863
 H        -2.402555        -0.347737         0.870251
 H        -1.464171        -0.806060        -0.665594
 H        -0.643605         3.157620         0.797896
 H        -2.203102         2.380988         1.438607
