19
Iteration:  4096
 O         0.459725         0.498392         0.728579
 C        -0.766372         1.054730         0.201768
 C        -0.597051         1.618694        -1.222102
 C        -2.010780         2.239662        -0.910108
 C        -2.932115         2.681055        -2.015125
 O        -3.594115         1.369725        -2.061032
 C        -2.896687         1.055463        -0.697463
 C        -1.929352        -0.037934        -0.015710
 C        -1.363081         2.418711         0.561014
 H         0.501095         0.926625         1.653793
 H         0.191870         2.381925        -1.201266
 H        -0.601546         0.974289        -2.150556
 H        -3.601137         3.436618        -1.793848
 H        -2.499335         2.969378        -2.970150
 H        -3.679566         1.187886        -0.042403
 H        -2.501977        -0.422682         0.830856
 H        -1.576283        -0.804164        -0.721651
 H        -0.584867         3.219709         0.765637
 H        -2.168225         2.468348         1.336901
