19
Iteration:   638
 O         0.419685         0.488052         0.812717
 C        -0.738101         1.058953         0.147114
 C        -0.680712         1.714802        -1.247451
 C        -2.019654         2.352222        -0.825150
 C        -3.043825         2.694998        -1.930777
 O        -3.365755         1.191164        -2.105168
 C        -2.895230         1.118777        -0.696626
 C        -1.992784         0.031130        -0.130537
 C        -1.326344         2.402105         0.640983
 H         0.595739        -0.339303         0.233811
 H         0.013278         2.502650        -1.300444
 H        -0.746593         1.065873        -2.125727
 H        -3.864372         3.383548        -1.464942
 H        -2.635116         3.093075        -2.953268
 H        -3.817737         1.395518        -0.183778
 H        -2.504037        -0.424840         0.725917
 H        -1.669206        -0.695644        -0.903805
 H        -0.395486         2.944980         0.915627
 H        -2.088052         2.328058         1.470204
