19
Iteration:  2726charge 0 multiplicity 1
 O         0.302192         0.415146         0.764275
 C        -0.682612         1.048840         0.155654
 C        -0.614782         1.548176        -1.285482
 C        -1.914214         2.342421        -0.895781
 C        -2.985305         2.656944        -1.971988
 O        -3.564434         1.288106        -1.977777
 C        -2.884089         1.149631        -0.637608
 C        -1.939675         0.139640        -0.101335
 C        -1.287530         2.396351         0.482241
 H         0.416236         0.718508         1.631971
 H         0.148658         2.287640        -1.437031
 H        -0.738348         0.895222        -2.119028
 H        -3.794857         3.273449        -1.636603
 H        -2.621689         2.885755        -2.998623
 H        -3.780277         1.425624         0.113248
 H        -2.396356        -0.325719         0.902056
 H        -1.679110        -0.778880        -0.738044
 H        -0.309464         3.047329         0.625408
 H        -1.966389         2.527607         1.341535
