19
Iteration:  2067
 O         0.363539         0.512483         0.663193
 C        -0.736356         1.059652         0.132056
 C        -0.633707         1.548950        -1.324004
 C        -1.980918         2.255044        -0.858125
 C        -2.862096         2.630834        -2.066048
 O        -3.581841         1.285208        -1.926643
 C        -3.014712         1.141589        -0.638390
 C        -2.003106         0.130179        -0.048110
 C        -1.222910         2.423656         0.589897
 H         0.419180         0.682309         1.619374
 H         0.325156         2.192615        -1.234242
 H        -0.376394         0.765910        -2.102500
 H        -3.514823         3.466813        -1.862137
 H        -2.226726         2.696296        -3.009610
 H        -3.811621         1.502988         0.189874
 H        -2.383427        -0.381248         0.867452
 H        -1.816606        -0.775084        -0.658614
 H        -0.388920         3.092401         0.795367
 H        -1.909928         2.311947         1.377363
