19
Iteration:  1170
 O         0.375146         0.439961         0.698056
 C        -0.747149         1.003542         0.101613
 C        -0.581068         1.678671        -1.248178
 C        -1.999969         2.281575        -0.831624
 C        -2.964539         2.636649        -2.006823
 O        -3.424592         1.221769        -2.028089
 C        -2.899249         1.212595        -0.592117
 C        -2.013531         0.062872        -0.131458
 C        -1.383374         2.496165         0.632305
 H         0.154132        -0.107253         1.460473
 H         0.206397         2.451765        -1.124645
 H        -0.540580         1.068067        -2.201879
 H        -3.742440         3.400519        -1.810735
 H        -2.383647         2.787012        -2.922692
 H        -3.670923         1.322722         0.041324
 H        -2.300974        -0.543748         0.782706
 H        -1.882560        -0.752702        -0.878826
 H        -0.532199         3.279651         0.589175
 H        -2.062074         2.636370         1.478451
