19
Iteration:  3979
 O         0.440977         0.536009         0.711563
 C        -0.764785         0.973195         0.171439
 C        -0.677424         1.532502        -1.333464
 C        -1.960259         2.301532        -0.828899
 C        -2.946283         2.656995        -2.091792
 O        -3.422507         1.276080        -2.040728
 C        -2.951397         1.176616        -0.624876
 C        -2.054373        -0.045965         0.031149
 C        -1.342776         2.479704         0.639267
 H         0.844789         1.403249         0.913793
 H         0.305066         2.056040        -1.372600
 H        -0.862132         0.908947        -2.174118
 H        -3.716636         3.524690        -1.979368
 H        -2.329260         2.866364        -3.032891
 H        -3.849114         1.517281         0.047563
 H        -2.458525        -0.485810         0.989409
 H        -1.766125        -0.812434        -0.748594
 H        -0.577008         3.219440         0.869527
 H        -2.132054         2.502862         1.420847
