19
Iteration:  1118charge 0 multiplicity 1
 O         0.489659         0.566472         0.753554
 C        -0.691338         1.088369         0.141285
 C        -0.736244         1.520987        -1.278544
 C        -2.022197         2.175651        -0.820325
 C        -2.912422         2.719994        -1.858831
 O        -3.363302         1.406990        -2.160822
 C        -2.986441         1.041732        -0.705913
 C        -2.090637         0.003853         0.008299
 C        -1.338867         2.419623         0.484828
 H         0.367137         0.477860         1.668080
 H         0.046581         2.210848        -1.553028
 H        -0.808326         0.833642        -2.119027
 H        -3.703015         3.345649        -1.447154
 H        -2.581061         3.265284        -2.760659
 H        -3.907877         1.092298        -0.003144
 H        -2.445004        -0.499856         1.038608
 H        -1.774374        -0.861089        -0.615289
 H        -0.489287         3.147628         0.574352
 H        -1.994902         2.370518         1.295576
