19
Iteration:   777
 O         0.532909         0.515065         0.763233
 C        -0.714780         1.026307         0.146386
 C        -0.667672         1.643207        -1.246627
 C        -2.061938         2.248759        -0.838960
 C        -2.919889         2.666199        -1.958296
 O        -3.509981         1.362079        -2.094773
 C        -2.947419         1.078955        -0.653479
 C        -1.953091         0.032088        -0.079392
 C        -1.397175         2.405887         0.565369
 H         0.228083        -0.381875         1.132099
 H         0.157757         2.456115        -1.423758
 H        -0.615198         0.829621        -2.078448
 H        -3.732120         3.373787        -1.739693
 H        -2.284971         2.995819        -2.754563
 H        -3.798825         1.271503         0.078269
 H        -2.385998        -0.338384         0.918284
 H        -1.743292        -0.762351        -0.872043
 H        -0.602878         3.339557         0.717778
 H        -2.255338         2.564584         1.324917
