19
Iteration:  2149
 O         0.359779         0.338451         0.848430
 C        -0.639004         1.011825         0.087997
 C        -0.654465         1.605480        -1.406063
 C        -1.968362         2.336100        -0.855277
 C        -3.127785         2.717948        -2.001598
 O        -3.387244         1.231878        -1.943784
 C        -2.856960         1.146240        -0.675360
 C        -1.995479         0.055389         0.001731
 C        -1.256069         2.532286         0.439634
 H        -0.225542        -0.064781         1.595072
 H         0.247169         2.156910        -1.524749
 H        -0.986674         1.071400        -2.265117
 H        -3.955222         3.394683        -1.471316
 H        -2.903395         3.222715        -2.919108
 H        -3.735297         1.529160         0.044597
 H        -2.389467        -0.066876         1.003980
 H        -1.720347        -0.858137        -0.576113
 H        -0.460963         3.387623         0.481334
 H        -2.055476         2.824957         1.283595
