19
Iteration:  1364charge 0 multiplicity 1
 O         0.482872         0.660922         0.856380
 C        -0.709457         0.997021         0.131320
 C        -0.655056         1.603341        -1.325282
 C        -2.032463         2.155889        -0.863244
 C        -2.912550         2.792190        -1.905720
 O        -3.419931         1.400211        -2.146506
 C        -3.062891         0.986692        -0.589486
 C        -1.997445        -0.022880        -0.107705
 C        -1.365573         2.360269         0.507582
 H         0.216382        -0.098696         1.450094
 H        -0.031506         2.429719        -1.534530
 H        -0.769553         0.863784        -2.097279
 H        -3.658285         3.539515        -1.570639
 H        -2.208008         3.132346        -2.645321
 H        -3.885439         1.176532         0.027222
 H        -2.215760        -0.630520         0.926617
 H        -1.703876        -0.806450        -0.914417
 H        -0.587098         3.124064         0.642115
 H        -1.949313         2.424884         1.404675
