19
Iteration:   958charge 0 multiplicity 1
 O         0.382479         0.358500         0.719947
 C        -0.701570         1.056207         0.131621
 C        -0.648191         1.586718        -1.314732
 C        -1.981362         2.293525        -0.851150
 C        -3.048136         2.669883        -1.901796
 O        -3.360941         1.323479        -2.081601
 C        -2.897835         1.064245        -0.648406
 C        -2.017149         0.116885        -0.024030
 C        -1.337823         2.520425         0.544392
 H         0.500001         0.717269         1.587447
 H         0.154809         2.394970        -1.491279
 H        -0.547640         0.742147        -2.042489
 H        -3.951381         3.143281        -1.462990
 H        -2.977208         3.069546        -2.944732
 H        -3.801058         1.217768        -0.184233
 H        -2.501928        -0.332108         0.920691
 H        -1.744035        -0.919486        -0.548283
 H        -0.440883         3.178138         0.516210
 H        -2.057699         2.774253         1.419807
