19
Iteration:  4562
 O         0.409638         0.571172         0.811329
 C        -0.758675         0.945162         0.135243
 C        -0.708213         1.566564        -1.236728
 C        -1.993715         2.276738        -0.855803
 C        -2.897470         2.745193        -1.909996
 O        -3.435601         1.336022        -2.163779
 C        -2.885804         1.034213        -0.722157
 C        -1.938899        -0.009177        -0.090103
 C        -1.466981         2.389735         0.644756
 H         1.004514         1.356791         0.935290
 H         0.167555         2.208003        -1.375378
 H        -0.847726         0.818050        -2.080265
 H        -3.724258         3.432066        -1.529268
 H        -2.454058         3.200497        -2.790640
 H        -3.742383         1.268717        -0.164275
 H        -2.259059        -0.470569         0.775381
 H        -1.649781        -0.779808        -0.782924
 H        -0.760556         3.213284         0.788730
 H        -2.136436         2.447180         1.498117
