19
Iteration:  2624charge 0 multiplicity 1
 O         0.316765         0.392808         0.760029
 C        -0.700099         1.053707         0.063326
 C        -0.648899         1.624814        -1.363577
 C        -2.028502         2.286789        -0.857347
 C        -3.014932         2.695282        -1.899947
 O        -3.340199         1.191655        -2.095992
 C        -2.927927         1.136193        -0.572033
 C        -1.998457         0.160086         0.055183
 C        -1.215066         2.535410         0.487632
 H        -0.166873        -0.375386         1.207970
 H         0.042967         2.352599        -1.807220
 H        -0.791595         0.809682        -2.114493
 H        -3.821227         3.269905        -1.389133
 H        -2.778218         3.190876        -2.807552
 H        -3.987437         1.466964        -0.113885
 H        -2.254398        -0.196061         1.192723
 H        -1.824706        -0.829465        -0.420627
 H        -0.420870         3.223208         0.430036
 H        -1.820747         2.424112         1.454564
