19
Iteration:  3300charge 0 multiplicity 1
 O         0.512036         0.534991         0.756389
 C        -0.752157         0.906273         0.167613
 C        -0.730459         1.506121        -1.263776
 C        -1.978767         2.306859        -0.845093
 C        -2.930532         2.719729        -1.967848
 O        -3.382074         1.358005        -2.093734
 C        -2.938683         1.094855        -0.688008
 C        -2.039017         0.016490        -0.072547
 C        -1.402966         2.433613         0.621236
 H         0.925538         1.352911         0.939061
 H         0.100345         2.179869        -1.567807
 H        -0.869645         0.849336        -2.122938
 H        -3.766802         3.268217        -1.518445
 H        -2.578382         3.008589        -3.012635
 H        -3.755375         1.337459        -0.063648
 H        -2.564319        -0.246819         0.908779
 H        -1.904408        -0.883148        -0.731042
 H        -0.705758         3.187495         0.994391
 H        -2.294883         2.442514         1.371754
