19
Iteration:  3579charge 0 multiplicity 1
 O         0.211087         0.422223         0.982914
 C        -0.776685         1.048714         0.124433
 C        -0.572914         1.602433        -1.418463
 C        -1.894048         2.333276        -0.986899
 C        -3.013795         2.688300        -1.997720
 O        -3.478105         1.248894        -1.932209
 C        -2.887961         1.135502        -0.599750
 C        -1.943941         0.012846        -0.060316
 C        -1.253467         2.488014         0.400266
 H         1.010788         0.222409         0.451135
 H         0.050998         2.507641        -1.307894
 H        -0.485516         0.983899        -2.258087
 H        -3.815640         3.109841        -1.477380
 H        -2.837306         3.062821        -2.944604
 H        -3.644306         1.459025         0.285197
 H        -2.298246        -0.256761         1.058182
 H        -1.853218        -0.849908        -0.779222
 H        -0.435609         3.251687         0.541910
 H        -1.925372         2.653283         1.307772
