19
Iteration:   322
 O         0.508766         0.637004         0.667639
 C        -0.808153         0.948017         0.079185
 C        -0.648260         1.678016        -1.220833
 C        -2.030936         2.347470        -0.738435
 C        -2.967429         2.743773        -1.905818
 O        -3.290361         1.308356        -2.109392
 C        -2.974230         1.096214        -0.680829
 C        -2.004080        -0.013245        -0.181284
 C        -1.495882         2.229140         0.698633
 H         0.520395         0.597761         1.598123
 H         0.342743         2.289837        -1.332968
 H        -0.570973         0.862232        -2.015909
 H        -3.866357         3.394403        -1.895457
 H        -2.408639         3.201849        -2.838448
 H        -3.893515         1.269196        -0.057950
 H        -2.302759        -0.780732         0.561472
 H        -1.730204        -0.685199        -0.971780
 H        -0.809560         2.952072         1.209736
 H        -2.235129         2.022273         1.417750
