19
Iteration:  3489
 O         0.383364         0.487553         0.660923
 C        -0.746957         1.038800         0.154638
 C        -0.643961         1.603432        -1.326533
 C        -2.000214         2.339714        -0.871555
 C        -2.962767         2.621415        -2.062279
 O        -3.346968         1.276583        -2.013856
 C        -2.931441         1.157797        -0.629813
 C        -2.009863         0.089845         0.043355
 C        -1.334834         2.398404         0.640589
 H        -0.018737         0.054866         1.492949
 H         0.209110         2.258537        -1.469108
 H        -0.918798         0.909137        -2.141249
 H        -3.789103         3.226957        -1.865750
 H        -2.418128         2.881698        -2.944642
 H        -3.873582         1.483674         0.025697
 H        -2.379387        -0.282784         1.007793
 H        -1.755230        -0.743228        -0.749716
 H        -0.601251         3.304060         0.695746
 H        -2.081916         2.285596         1.430989
