19
Iteration:  2049charge 0 multiplicity 1
 O         0.367079         0.385949         0.754540
 C        -0.752457         0.968124         0.157571
 C        -0.587761         1.594000        -1.278001
 C        -1.882153         2.317914        -0.931947
 C        -3.019172         2.657626        -2.024172
 O        -3.532888         1.294731        -1.937291
 C        -2.886499         1.169840        -0.593821
 C        -1.983957         0.039082        -0.061627
 C        -1.323736         2.537200         0.444355
 H         0.245793         0.445849         1.705591
 H         0.097630         2.379610        -1.430880
 H        -0.663463         0.862865        -2.093974
 H        -3.791474         3.356065        -1.613207
 H        -2.634099         2.785000        -3.049402
 H        -3.630625         1.508390         0.096844
 H        -2.367089        -0.467577         0.887417
 H        -1.699492        -0.687135        -0.786294
 H        -0.489993         3.222863         0.373647
 H        -1.799848         2.887663         1.504335
