19
Iteration:  3473
 O         0.358293         0.389572         0.710720
 C        -0.790061         0.992026         0.093534
 C        -0.633587         1.646040        -1.276851
 C        -1.876193         2.424565        -0.861984
 C        -3.045505         2.652940        -1.979966
 O        -3.362942         1.122405        -2.032258
 C        -2.860764         1.185281        -0.633245
 C        -2.037527         0.127531        -0.055651
 C        -1.363390         2.481281         0.575221
 H         0.351403         0.418767         1.690193
 H         0.276403         2.347672        -1.256540
 H        -0.570110         0.988220        -2.170387
 H        -3.951231         3.309350        -1.636669
 H        -2.825375         3.039948        -3.034922
 H        -3.590478         1.572405         0.019526
 H        -2.421306        -0.185030         0.934531
 H        -1.891170        -0.711313        -0.621041
 H        -0.478409         3.043821         0.721834
 H        -2.149404         2.456055         1.378648
