19
Iteration:   679charge 0 multiplicity 1
 O         0.385956         0.519873         0.803640
 C        -0.768945         0.982852         0.168576
 C        -0.715274         1.650283        -1.341388
 C        -1.976788         2.293174        -0.867379
 C        -2.885713         2.785437        -1.912876
 O        -3.448652         1.320446        -2.044546
 C        -2.910438         1.016837        -0.706238
 C        -1.955305        -0.031561        -0.093981
 C        -1.421206         2.401187         0.609461
 H         1.184029         0.933316         0.407588
 H        -0.033919         2.529590        -1.335593
 H        -0.598494         0.942409        -2.164337
 H        -3.777540         3.372869        -1.638229
 H        -2.347885         3.099630        -2.819942
 H        -3.739282         1.093553         0.119751
 H        -2.404391        -0.505078         0.864110
 H        -1.565700        -0.942404        -0.639260
 H        -0.513034         3.088057         0.735356
 H        -2.214628         2.358993         1.274020
