19
Iteration:  2055charge 0 multiplicity 1
 O         0.364183         0.422511         0.719899
 C        -0.786918         1.021065         0.122584
 C        -0.565003         1.583596        -1.243293
 C        -1.928925         2.271432        -0.940372
 C        -2.955296         2.633504        -2.016011
 O        -3.566421         1.291026        -1.944123
 C        -2.896163         1.151819        -0.584990
 C        -2.006746         0.085784        -0.076446
 C        -1.273494         2.481962         0.530718
 H         0.301817         0.556082         1.657682
 H         0.283946         2.347527        -1.383213
 H        -0.725662         0.888832        -2.093281
 H        -3.736706         3.368252        -1.819792
 H        -2.549780         2.833490        -3.035266
 H        -3.724830         1.380514         0.208261
 H        -2.333103        -0.247836         0.892677
 H        -1.699608        -0.692451        -0.828719
 H        -0.420530         3.188865         0.377344
 H        -1.826281         2.799681         1.325438
