19
Iteration:  1819charge 0 multiplicity 1
 O         0.392290         0.433144         0.805046
 C        -0.729225         0.985262         0.091336
 C        -0.683325         1.634576        -1.250530
 C        -1.971054         2.376047        -0.872623
 C        -2.890462         2.621131        -2.081617
 O        -3.505920         1.330985        -1.941243
 C        -2.904342         1.167922        -0.608122
 C        -2.019166         0.016007        -0.023856
 C        -1.326057         2.449233         0.507928
 H         1.009286        -0.131848         0.327641
 H         0.023857         2.435477        -1.399882
 H        -0.752951         1.055776        -2.186972
 H        -3.840495         3.195091        -2.076743
 H        -2.321934         2.639472        -3.049453
 H        -3.721935         1.391523         0.169189
 H        -2.340736        -0.129924         1.087936
 H        -1.889596        -0.750247        -0.785496
 H        -0.596273         3.141458         0.748616
 H        -2.082767         2.522680         1.422585
