19
Iteration:   608
 O         0.350074         0.473183         0.800734
 C        -0.721821         1.043924         0.066929
 C        -0.667595         1.687104        -1.325267
 C        -2.048846         2.266191        -0.812124
 C        -2.980054         2.738780        -1.851624
 O        -3.354201         1.297714        -2.071342
 C        -2.941848         1.021249        -0.686478
 C        -1.840593         0.058727        -0.117921
 C        -1.414961         2.452529         0.558434
 H        -0.005281        -0.379745         1.142763
 H        -0.034748         2.609091        -1.303027
 H        -0.599302         1.133926        -2.300497
 H        -3.657156         3.312039        -1.372286
 H        -2.620855         3.133786        -2.774869
 H        -3.844619         1.039427        -0.113423
 H        -2.162181        -0.340598         0.803301
 H        -1.496837        -0.817081        -0.626866
 H        -0.521490         2.928505         0.737296
 H        -2.211950         2.424300         1.371230
