19
Iteration:  3417charge 0 multiplicity 1
 O         0.415903         0.567346         0.927437
 C        -0.732172         1.011788         0.154689
 C        -0.739760         1.536062        -1.400178
 C        -1.964796         2.259321        -0.842967
 C        -2.920875         2.767501        -2.025909
 O        -3.456809         1.442253        -1.987300
 C        -2.970057         1.015088        -0.733824
 C        -1.938228        -0.055074        -0.124289
 C        -1.357767         2.328182         0.512643
 H         0.658254         1.352381         1.502454
 H         0.153428         2.250898        -1.579761
 H        -0.830751         0.754974        -2.171277
 H        -3.729429         3.436881        -1.475568
 H        -2.513515         2.929789        -3.066408
 H        -3.695897         1.193910         0.073194
 H        -2.458107        -0.353066         0.840818
 H        -1.498356        -0.855255        -0.582636
 H        -0.600817         3.102889         0.647301
 H        -1.960825         2.274850         1.507180
