19
Iteration:  2948
 O         0.327877         0.474182         0.652051
 C        -0.770904         1.047397         0.102846
 C        -0.592160         1.697192        -1.301286
 C        -1.977211         2.299700        -0.795283
 C        -2.877707         2.621229        -2.065800
 O        -3.467120         1.252945        -1.937923
 C        -2.959166         1.104847        -0.649111
 C        -1.982621         0.140822        -0.036641
 C        -1.312508         2.397594         0.621296
 H         0.088045        -0.189786         1.297881
 H         0.321999         2.264920        -1.316716
 H        -0.531969         1.085954        -2.181058
 H        -3.691244         3.365822        -1.932371
 H        -2.388353         2.812930        -3.088869
 H        -3.794531         1.396803         0.019100
 H        -2.383205        -0.384120         0.993367
 H        -1.738471        -0.803411        -0.679383
 H        -0.506230         3.207147         0.695748
 H        -2.094974         2.502209         1.473039
