19
Iteration:  1681charge 0 multiplicity 1
 O         0.288185         0.432909         0.811891
 C        -0.739174         1.088370         0.103578
 C        -0.523088         1.654135        -1.286517
 C        -1.954405         2.320462        -0.864369
 C        -2.971919         2.659245        -2.010640
 O        -3.561468         1.219601        -1.971112
 C        -2.943226         1.131194        -0.583987
 C        -1.923098         0.112638        -0.109036
 C        -1.257457         2.412044         0.532574
 H        -0.239085        -0.455803         0.913654
 H         0.252596         2.423401        -1.551490
 H        -0.337947         0.897756        -2.122685
 H        -3.753132         3.441013        -1.845194
 H        -2.402441         2.757057        -2.949817
 H        -3.716530         1.648819         0.135572
 H        -2.099081        -0.170207         0.869101
 H        -1.701784        -0.625066        -0.845948
 H        -0.405835         3.242508         0.446687
 H        -2.093515         2.457559         1.345572
