19
Iteration:  1627charge 0 multiplicity 1
 O         0.415473         0.640842         0.683948
 C        -0.841330         0.970877         0.166878
 C        -0.670970         1.409143        -1.297246
 C        -1.972487         2.232407        -0.789797
 C        -2.941606         2.746278        -1.913033
 O        -3.352882         1.312464        -2.114850
 C        -2.977735         1.113084        -0.680466
 C        -2.043081         0.106625        -0.012396
 C        -1.264819         2.397584         0.524551
 H         0.203972         0.079250         1.510088
 H         0.169533         2.132326        -1.383602
 H        -0.731907         0.611208        -2.065347
 H        -3.673245         3.399782        -1.363691
 H        -2.764268         3.269276        -2.868183
 H        -3.780036         1.398128        -0.100768
 H        -2.454414        -0.343511         0.838237
 H        -1.725542        -0.722486        -0.650340
 H        -0.549837         3.279071         0.704841
 H        -1.760071         2.530671         1.502284
