19
Iteration:  4162charge 0 multiplicity 1
 O         0.283706         0.347717         0.851293
 C        -0.716489         1.036703         0.177973
 C        -0.626033         1.630877        -1.288966
 C        -2.045612         2.314960        -0.850453
 C        -3.080278         2.695099        -1.910489
 O        -3.304685         1.275424        -2.111729
 C        -2.909383         1.027440        -0.667431
 C        -1.948966         0.076433        -0.092318
 C        -1.330147         2.570274         0.502892
 H         1.125317         0.565799         0.517030
 H         0.037173         2.505996        -1.444294
 H        -0.717296         0.844985        -2.063856
 H        -3.968639         3.085264        -1.547987
 H        -2.747753         3.348484        -2.739932
 H        -3.789622         0.969107        -0.056562
 H        -2.326850        -0.167532         0.928184
 H        -1.641172        -0.837770        -0.650558
 H        -0.558536         3.361057         0.501880
 H        -1.808712         2.721250         1.490417
