19
Iteration:  1822
 O         0.386821         0.452047         0.815577
 C        -0.718469         0.958369         0.090542
 C        -0.687230         1.624630        -1.261575
 C        -1.970822         2.367675        -0.853315
 C        -2.882991         2.619495        -2.110886
 O        -3.547836         1.349374        -1.949096
 C        -2.887482         1.158333        -0.621521
 C        -2.014441         0.019160        -0.009346
 C        -1.333343         2.446578         0.551397
 H         1.029560        -0.058477         0.207424
 H         0.100393         2.434899        -1.418754
 H        -0.736023         1.022272        -2.235021
 H        -3.807496         3.203340        -2.049916
 H        -2.338338         2.642730        -3.053248
 H        -3.600733         1.400359         0.066060
 H        -2.283919        -0.118455         1.140652
 H        -1.839278        -0.729876        -0.797320
 H        -0.523365         3.132387         0.733540
 H        -2.106020         2.514884         1.350060
