19
Iteration:  3606
 O         0.320302         0.407367         0.867711
 C        -0.706646         1.114638         0.195229
 C        -0.585042         1.458307        -1.318778
 C        -1.955220         2.274534        -0.881359
 C        -2.931317         2.602180        -2.018201
 O        -3.562478         1.328439        -1.971240
 C        -2.925430         1.113755        -0.632194
 C        -1.980874         0.064151        -0.123186
 C        -1.316222         2.599457         0.519226
 H         1.134647         0.896075         0.689296
 H         0.110263         2.230211        -1.611753
 H        -0.696530         0.537780        -1.991093
 H        -3.762027         3.388633        -1.778917
 H        -2.406361         2.765831        -3.054541
 H        -3.671553         1.334640         0.125786
 H        -2.407762        -0.376065         0.738180
 H        -1.765640        -0.683381        -0.889233
 H        -0.527863         3.347965         0.393571
 H        -1.944512         2.653280         1.377100
