19
Iteration:  2042
 O         0.374773         0.351446         0.805490
 C        -0.700346         0.960140         0.176941
 C        -0.645302         1.574259        -1.339844
 C        -1.918120         2.336320        -0.928421
 C        -3.065662         2.673727        -2.004176
 O        -3.479336         1.285951        -1.916684
 C        -2.880193         1.193350        -0.637539
 C        -1.968530         0.008568        -0.032054
 C        -1.339785         2.625858         0.401585
 H         0.181892         0.232779         1.793108
 H         0.219859         2.300909        -1.437779
 H        -0.498248         0.882667        -2.169125
 H        -3.748586         3.420092        -1.543978
 H        -2.830135         2.984749        -3.008082
 H        -3.585249         1.608399         0.137463
 H        -2.349039        -0.619211         0.729288
 H        -1.742007        -0.798385        -0.813243
 H        -0.358923         3.222288         0.451261
 H        -2.014890         2.692561         1.223337
