19
Iteration:  3056charge 0 multiplicity 1
 O         0.394531         0.484791         0.834496
 C        -0.764764         1.013515         0.185801
 C        -0.651651         1.522543        -1.343944
 C        -1.935993         2.304936        -0.920278
 C        -2.897106         2.679257        -1.950653
 O        -3.554191         1.335807        -2.003100
 C        -2.963936         1.153694        -0.683872
 C        -1.969189         0.027269        -0.144123
 C        -1.332998         2.393936         0.591223
 H         0.888729         1.034150         1.518186
 H         0.054378         2.335692        -1.466942
 H        -0.623834         0.685057        -2.029936
 H        -3.594888         3.545354        -1.796777
 H        -2.451995         2.902275        -2.977944
 H        -3.715925         1.429770         0.149708
 H        -2.239861        -0.612870         0.644104
 H        -1.692587        -0.562580        -1.066289
 H        -0.573526         3.207711         0.683604
 H        -1.928645         2.355887         1.452073
