19
Iteration:   261
 O         0.377709         0.431365         0.808047
 C        -0.730021         1.058327         0.142302
 C        -0.709719         1.750862        -1.281883
 C        -2.008728         2.318552        -0.775547
 C        -3.070310         2.724051        -1.813251
 O        -3.278868         1.267197        -2.128683
 C        -2.883409         1.026587        -0.713925
 C        -1.871478         0.035268        -0.271246
 C        -1.442836         2.446589         0.647839
 H         0.106323        -0.404259         1.114115
 H         0.003691         2.485960        -1.494113
 H        -0.501422         0.983618        -1.985807
 H        -4.024768         3.127995        -1.413400
 H        -2.717903         3.222505        -2.650142
 H        -3.774014         1.155633        -0.079731
 H        -2.314781        -0.605575         0.511165
 H        -1.417474        -0.542515        -1.126921
 H        -0.682178         3.185004         0.738934
 H        -2.265384         2.490397         1.524133
