19
Iteration:   631charge 0 multiplicity 1
 O         0.376695         0.471697         0.809312
 C        -0.699854         1.059694         0.123295
 C        -0.654199         1.750706        -1.253923
 C        -2.047587         2.316351        -0.793925
 C        -3.087310         2.724422        -1.951437
 O        -3.356422         1.240003        -2.103855
 C        -2.857182         1.092170        -0.696137
 C        -1.979801        -0.002498        -0.099521
 C        -1.325784         2.421037         0.615628
 H         0.368695        -0.409358         0.430081
 H         0.193288         2.517835        -1.320561
 H        -0.770092         1.037132        -2.111994
 H        -3.901115         3.269238        -1.650308
 H        -2.577685         3.071574        -2.791246
 H        -3.738558         1.323432        -0.088844
 H        -2.330932        -0.497423         0.772104
 H        -1.756598        -0.818336        -0.763480
 H        -0.555858         3.152046         0.648877
 H        -2.043909         2.224457         1.483922
