19
Iteration:  4700
 O         0.434736         0.625868         0.803168
 C        -0.742843         0.983071         0.195341
 C        -0.669702         1.618096        -1.274380
 C        -1.979410         2.252861        -0.845189
 C        -2.880017         2.788860        -1.944968
 O        -3.383719         1.288788        -2.077292
 C        -2.928533         1.069995        -0.717057
 C        -2.063046        -0.047498        -0.134668
 C        -1.479294         2.294135         0.582892
 H         0.895672         1.420200         0.979000
 H         0.159758         2.268784        -1.473093
 H        -0.902289         0.977950        -2.134141
 H        -3.586012         3.453897        -1.509266
 H        -2.387978         3.186721        -2.815255
 H        -3.708466         1.198923         0.047029
 H        -2.530325        -0.589013         0.659792
 H        -1.640891        -0.899781        -0.777443
 H        -0.727494         3.046561         0.754159
 H        -2.086851         2.379368         1.530895
