19
Iteration:   834
 O         0.373335         0.519447         0.906710
 C        -0.713141         0.985379         0.032074
 C        -0.621730         1.595949        -1.354277
 C        -2.041060         2.331003        -0.812423
 C        -3.035551         2.696374        -1.939160
 O        -3.332724         1.259334        -2.003484
 C        -2.962243         1.151270        -0.692299
 C        -2.016358         0.045005        -0.123483
 C        -1.286352         2.426875         0.604029
 H         0.908966        -0.112196         0.380078
 H         0.174383         2.307847        -1.466861
 H        -0.686349         0.839113        -2.188108
 H        -3.838160         3.112334        -1.402687
 H        -2.966196         3.214990        -2.893179
 H        -3.952129         1.404605        -0.184934
 H        -2.439968        -0.364579         0.820194
 H        -1.873208        -0.850748        -0.894838
 H        -0.604001         3.377702         0.509415
 H        -1.864367         2.426153         1.525203
