19
Iteration:  1029
 O         0.450013         0.517461         0.712213
 C        -0.790170         1.043259         0.194691
 C        -0.620696         1.614509        -1.257800
 C        -2.001609         2.235977        -0.882395
 C        -2.908716         2.687051        -2.119551
 O        -3.565273         1.334971        -1.956478
 C        -2.908041         1.062814        -0.631986
 C        -1.942470         0.021093        -0.068968
 C        -1.349347         2.468564         0.620373
 H         0.160473        -0.215096         1.213144
 H         0.068768         2.411861        -1.384005
 H        -0.580379         1.041269        -2.186238
 H        -3.615949         3.453825        -1.901466
 H        -2.410330         3.055073        -3.004916
 H        -3.913608         1.391405        -0.014374
 H        -2.281435        -0.663574         0.648598
 H        -1.560018        -0.757282        -0.609618
 H        -0.389064         2.991812         0.732382
 H        -1.996910         2.651618         1.384849
