19
Iteration:   949
 O         0.375623         0.333469         0.738758
 C        -0.688657         1.077499         0.159478
 C        -0.671341         1.614950        -1.336087
 C        -2.019239         2.272884        -0.861952
 C        -3.029785         2.757018        -1.960238
 O        -3.357381         1.256716        -2.076844
 C        -2.947378         1.101942        -0.626428
 C        -1.965371         0.003576        -0.018520
 C        -1.326854         2.548919         0.530392
 H         0.634675         0.667100         1.589219
 H         0.033680         2.469974        -1.554340
 H        -0.682165         0.751379        -1.997768
 H        -3.688820         3.374940        -1.407733
 H        -2.694760         3.142551        -2.900551
 H        -3.881349         1.357187         0.096753
 H        -2.148016        -0.237264         1.016027
 H        -1.935396        -0.767712        -0.799416
 H        -0.694623         3.381438         0.582957
 H        -2.060592         2.482264         1.357816
