19
Iteration:   890
 O         0.427564         0.484544         0.860852
 C        -0.761120         0.970497         0.160120
 C        -0.629410         1.587612        -1.290536
 C        -1.974098         2.269749        -0.882546
 C        -2.962229         2.687508        -1.954485
 O        -3.516526         1.322566        -2.000509
 C        -2.914780         1.135150        -0.673759
 C        -1.962802         0.107398        -0.102776
 C        -1.395889         2.360281         0.518950
 H         1.184860         0.914096         0.498047
 H         0.141478         2.384991        -1.375441
 H        -0.493612         0.903337        -2.199159
 H        -3.621139         3.507499        -1.656806
 H        -2.492180         2.960006        -2.934718
 H        -3.789865         1.279877         0.044182
 H        -2.342066        -0.577192         0.715571
 H        -1.866904        -0.752618        -0.934141
 H        -0.554201         3.162162         0.685195
 H        -2.157563         2.477752         1.321251
