19
Iteration:  2724
 O         0.306518         0.426950         0.758551
 C        -0.688544         1.031971         0.147854
 C        -0.607227         1.551876        -1.282744
 C        -1.922141         2.337562        -0.884859
 C        -2.957716         2.669256        -1.991835
 O        -3.578016         1.294348        -1.978667
 C        -2.888086         1.127218        -0.619059
 C        -1.946102         0.147666        -0.098511
 C        -1.280677         2.407217         0.494571
 H         0.441058         0.743261         1.668233
 H         0.166050         2.329111        -1.472635
 H        -0.690929         0.929912        -2.204551
 H        -3.803341         3.297463        -1.678151
 H        -2.700793         2.792297        -3.024706
 H        -3.731137         1.377337         0.084482
 H        -2.448905        -0.356661         0.900492
 H        -1.690250        -0.762459        -0.705036
 H        -0.334982         2.946147         0.624302
 H        -1.992519         2.483759         1.362504
