19
Iteration:  2087charge 0 multiplicity 1
 O         0.556077         0.542141         0.673630
 C        -0.719115         0.971164         0.108847
 C        -0.744755         1.535489        -1.314054
 C        -2.007747         2.261638        -0.862369
 C        -2.833943         2.638260        -2.099487
 O        -3.489046         1.370973        -1.982332
 C        -2.952295         1.206686        -0.541872
 C        -2.062508         0.058379         0.030423
 C        -1.399278         2.353597         0.592367
 H         0.399266         0.598518         1.683100
 H         0.176430         2.153399        -1.629573
 H        -1.056885         0.904547        -2.166086
 H        -3.543760         3.471961        -2.114693
 H        -2.214431         2.764122        -2.997203
 H        -3.745917         1.446363         0.176637
 H        -2.321296        -0.331657         0.995754
 H        -2.025193        -0.881065        -0.621590
 H        -0.566334         3.138339         0.577109
 H        -2.147461         2.420742         1.288845
