19
Iteration:  2474charge 0 multiplicity 1
 O         0.506506         0.418131         0.719844
 C        -0.709081         0.947697         0.181391
 C        -0.714269         1.529783        -1.379306
 C        -1.968470         2.236861        -0.902675
 C        -2.976582         2.731072        -2.031564
 O        -3.450570         1.286458        -1.972060
 C        -2.927806         1.217150        -0.608918
 C        -2.030183         0.115120         0.019547
 C        -1.328825         2.443313         0.530941
 H         0.382348         0.448660         1.705037
 H        -0.091817         2.405378        -1.597198
 H        -0.828544         0.840450        -2.242361
 H        -3.812591         3.520750        -1.785972
 H        -2.427505         2.959353        -3.031938
 H        -3.807652         1.583149         0.077814
 H        -2.550665        -0.120858         0.933531
 H        -1.915824        -0.757128        -0.590431
 H        -0.591766         3.200690         0.593214
 H        -1.993153         2.581851         1.478485
