19
Iteration:    30
 O         0.426268         0.298297         0.874253
 C        -0.758388         1.006664         0.175739
 C        -0.570013         1.713055        -1.249573
 C        -1.979158         2.254119        -0.909930
 C        -3.155310         2.670556        -1.878389
 O        -3.459210         1.347929        -2.073340
 C        -2.918708         1.071714        -0.704125
 C        -1.853528        -0.023995        -0.196185
 C        -1.446657         2.600376         0.481368
 H         0.996440         0.867371         1.338580
 H         0.245270         2.468070        -1.342037
 H        -0.427166         1.047918        -2.106387
 H        -3.899122         3.203848        -1.160431
 H        -2.865502         3.133900        -2.797717
 H        -3.609762         1.249470         0.165384
 H        -2.216552        -0.762064         0.605237
 H        -1.430647        -0.523601        -1.093205
 H        -0.691890         3.323762         0.725445
 H        -2.011093         2.728135         1.440498
