19
Iteration:  3341
 O         0.219917         0.225392         0.823113
 C        -0.681143         1.092572         0.040566
 C        -0.693248         1.758617        -1.328783
 C        -1.985575         2.294475        -0.798914
 C        -3.012208         2.624318        -1.921195
 O        -3.270878         1.184288        -2.058009
 C        -2.968755         1.104472        -0.642455
 C        -1.931849         0.160344        -0.080509
 C        -1.344029         2.564035         0.549915
 H         1.174484         0.478811         0.747286
 H         0.006769         2.700621        -1.345807
 H        -0.592979         1.157158        -2.260588
 H        -3.848695         3.226766        -1.530688
 H        -2.592008         3.059939        -2.861226
 H        -4.021286         1.077183        -0.067823
 H        -2.220640        -0.276477         0.912867
 H        -1.740633        -0.661834        -0.654162
 H        -0.596526         3.339650         0.712062
 H        -1.966515         2.739330         1.503600
