19
Iteration:  3065charge 0 multiplicity 1
 O         0.318767         0.416720         0.818423
 C        -0.765551         1.013808         0.162231
 C        -0.660656         1.588002        -1.278050
 C        -1.949787         2.317833        -0.867940
 C        -2.948936         2.660829        -2.026172
 O        -3.524920         1.326722        -1.956429
 C        -2.865012         1.166062        -0.616366
 C        -1.946848        -0.000387        -0.191175
 C        -1.331530         2.440497         0.526389
 H         0.806085         1.173225         1.300518
 H         0.246621         2.283226        -1.365258
 H        -0.472309         0.866322        -2.149423
 H        -3.718283         3.408888        -1.717386
 H        -2.397893         2.858634        -2.963877
 H        -3.661588         1.342160         0.060590
 H        -2.339624        -0.455654         0.635471
 H        -1.718815        -0.783792        -0.954416
 H        -0.411036         3.132860         0.749988
 H        -2.037142         2.629025         1.328616
