19
Iteration:  3374charge 0 multiplicity 1
 O         0.323429         0.407926         0.778671
 C        -0.784470         1.069797         0.202440
 C        -0.595234         1.604437        -1.229808
 C        -1.908945         2.263220        -0.916930
 C        -3.050355         2.671805        -1.986257
 O        -3.410004         1.301960        -1.990366
 C        -2.863254         1.124027        -0.695434
 C        -1.982854         0.032314        -0.129815
 C        -1.385244         2.465005         0.590349
 H         1.217319         0.832063         0.564978
 H         0.153540         2.494546        -1.267708
 H        -0.525869         0.923194        -2.098988
 H        -3.861981         3.336051        -1.561683
 H        -2.583929         2.979332        -2.982185
 H        -3.812218         1.252843        -0.031011
 H        -2.462731        -0.405331         0.772926
 H        -1.612802        -0.645472        -0.786118
 H        -0.623909         3.225368         0.672609
 H        -2.273640         2.471110         1.314721
