19
Iteration:  1413
 O         0.373757         0.397309         0.699609
 C        -0.713583         1.005208         0.157456
 C        -0.589788         1.609071        -1.255979
 C        -1.952615         2.336766        -0.863691
 C        -2.995856         2.677145        -1.937999
 O        -3.396005         1.245093        -2.042495
 C        -2.909878         1.127379        -0.677653
 C        -1.954494         0.064828        -0.115364
 C        -1.467915         2.509754         0.549178
 H         0.196365         0.322842         1.660121
 H         0.082868         2.515327        -1.032673
 H        -0.405243         1.004425        -2.196017
 H        -3.775013         3.228897        -1.377918
 H        -2.664049         3.213171        -2.866432
 H        -3.706463         1.398827         0.070901
 H        -2.211531        -0.542618         0.720536
 H        -1.661061        -0.573348        -0.927388
 H        -0.889871         3.364235         0.939951
 H        -2.209194         2.416954         1.433835
