19
Iteration:  3380
 O         0.335958         0.487907         0.771911
 C        -0.795997         1.039882         0.181608
 C        -0.550602         1.570084        -1.225364
 C        -1.930704         2.286031        -0.926514
 C        -2.931327         2.665044        -1.943577
 O        -3.450664         1.286966        -2.002693
 C        -2.952146         1.117232        -0.693960
 C        -2.002025         0.051483        -0.135823
 C        -1.396296         2.410336         0.597995
 H         1.073617         1.067725         0.610854
 H         0.183677         2.321174        -1.220771
 H        -0.496254         0.965186        -2.128071
 H        -3.733211         3.377834        -1.594010
 H        -2.777009         3.098065        -2.917594
 H        -3.723806         1.350328         0.007408
 H        -2.323087        -0.464986         0.772706
 H        -1.590629        -0.790420        -0.878438
 H        -0.552106         3.150116         0.664455
 H        -2.135040         2.435677         1.347781
