19
Iteration:  4738charge 0 multiplicity 1
 O         0.290715         0.366935         0.871163
 C        -0.736572         1.085994         0.143247
 C        -0.629171         1.704386        -1.284609
 C        -1.984909         2.276254        -0.860619
 C        -2.993925         2.782101        -1.906537
 O        -3.405001         1.223380        -2.109590
 C        -2.869592         1.038013        -0.703546
 C        -1.890057         0.084550        -0.136716
 C        -1.399820         2.404988         0.597732
 H         1.074301         0.865528         1.176740
 H         0.168919         2.476186        -1.530838
 H        -0.617491         0.964954        -2.102843
 H        -4.012042         3.085958        -1.551707
 H        -2.778495         3.194325        -2.928240
 H        -3.812973         1.276241        -0.117919
 H        -2.423601        -0.310194         0.795610
 H        -1.472225        -0.682584        -0.786121
 H        -0.703512         3.274289         0.550840
 H        -2.159403         2.481031         1.344662
