19
Iteration:  1224charge 0 multiplicity 1
 O         0.406677         0.581947         0.838303
 C        -0.763196         0.968594         0.099613
 C        -0.600164         1.590083        -1.307582
 C        -1.947074         2.348721        -0.926821
 C        -3.010141         2.746594        -1.893207
 O        -3.433536         1.296777        -2.049482
 C        -2.916171         1.138798        -0.689082
 C        -1.990617        -0.023210        -0.105589
 C        -1.354292         2.362361         0.518826
 H         0.163235        -0.042238         1.489089
 H         0.278295         2.242227        -1.332180
 H        -0.625617         0.764067        -2.063864
 H        -3.836261         3.231003        -1.343906
 H        -2.700958         3.198721        -2.834837
 H        -3.843157         1.178113         0.047443
 H        -2.356498        -0.263345         0.775107
 H        -1.662554        -0.914848        -0.675677
 H        -0.561068         3.146413         0.831739
 H        -2.054895         2.419254         1.345454
