19
Iteration:  4711
 O         0.406911         0.604854         0.791706
 C        -0.790355         0.954915         0.130746
 C        -0.678560         1.577420        -1.257453
 C        -1.943618         2.230246        -0.830891
 C        -2.934708         2.719433        -1.934654
 O        -3.371275         1.365963        -2.100755
 C        -2.875192         1.079707        -0.661340
 C        -2.007542        -0.054468        -0.132389
 C        -1.442753         2.359747         0.617694
 H         0.796405         1.456710         1.017166
 H         0.042610         2.368291        -1.171459
 H        -0.442180         0.910155        -2.082088
 H        -3.842993         3.186620        -1.649729
 H        -2.670875         3.164029        -2.871302
 H        -3.768175         1.298311        -0.069634
 H        -2.511096        -0.397820         0.728401
 H        -1.746087        -0.861828        -0.920313
 H        -0.624711         3.063333         0.705879
 H        -2.339142         2.466785         1.298069
