19
Iteration:  4608charge 0 multiplicity 1
 O         0.304930         0.418709         0.834865
 C        -0.796601         1.039710         0.149170
 C        -0.607599         1.663422        -1.277519
 C        -2.008340         2.308968        -0.851970
 C        -2.989219         2.683749        -1.933533
 O        -3.424372         1.227514        -2.098429
 C        -2.825365         1.123231        -0.676474
 C        -1.899708         0.053248        -0.136614
 C        -1.387699         2.417394         0.612592
 H         1.097179         1.054448         0.837935
 H         0.167086         2.530620        -1.298680
 H        -0.741470         1.129445        -2.240572
 H        -3.910661         3.277950        -1.695849
 H        -2.605765         3.074566        -2.882635
 H        -3.735816         1.121586        -0.090343
 H        -2.538558        -0.451373         0.609030
 H        -1.573254        -0.654405        -0.830088
 H        -0.569010         3.194842         0.954603
 H        -2.119460         2.492128         1.448486
