19
Iteration:  4220
 O         0.372821         0.594240         0.854632
 C        -0.762462         0.931515         0.160184
 C        -0.679405         1.614027        -1.313294
 C        -1.951740         2.255498        -0.856872
 C        -2.873124         2.718211        -2.023632
 O        -3.470438         1.310490        -2.027884
 C        -2.930885         1.120560        -0.634327
 C        -2.018708        -0.018611        -0.115448
 C        -1.402587         2.367181         0.624781
 H         1.049938         1.164200         0.362179
 H         0.158269         2.327587        -1.488047
 H        -0.596410         1.074744        -2.235165
 H        -3.702036         3.351329        -1.822153
 H        -2.258365         2.979859        -2.925975
 H        -3.724678         1.343664         0.054742
 H        -2.248505        -0.674787         0.705977
 H        -1.727076        -0.598573        -0.932680
 H        -0.497534         2.993389         0.614545
 H        -2.085980         2.295828         1.572277
