19
Iteration:  2714
 O         0.397110         0.455616         0.768942
 C        -0.791919         0.970670         0.071027
 C        -0.587259         1.617782        -1.344864
 C        -1.957180         2.249576        -0.888797
 C        -2.914097         2.692970        -2.073577
 O        -3.583405         1.324183        -1.938153
 C        -2.943622         1.114988        -0.616018
 C        -1.989245         0.057634        -0.042349
 C        -1.272655         2.451301         0.575235
 H         0.418979         0.853573         1.697160
 H         0.215019         2.363640        -1.346676
 H        -0.509530         0.958309        -2.206837
 H        -3.550944         3.563001        -1.885504
 H        -2.559896         2.783606        -3.101896
 H        -3.742056         1.312552         0.240425
 H        -2.400671        -0.411744         0.985638
 H        -1.723489        -0.754127        -0.799109
 H        -0.382038         3.153594         0.690149
 H        -1.931659         2.433414         1.483552
