19
Iteration:  4994charge 0 multiplicity 1
 O         0.223163         0.283187         0.821991
 C        -0.678901         1.106235         0.152054
 C        -0.629112         1.705451        -1.265065
 C        -1.991789         2.348403        -0.834793
 C        -3.118327         2.714018        -2.007371
 O        -3.336893         1.219615        -2.083027
 C        -2.892514         1.043359        -0.751275
 C        -1.843357         0.116445        -0.070502
 C        -1.371812         2.454612         0.649931
 H         1.035383         0.816282         0.931277
 H         0.178748         2.438108        -1.439151
 H        -0.643621         1.023107        -2.165623
 H        -3.891794         3.259966        -1.437045
 H        -2.888320         3.158081        -2.939130
 H        -3.780808         1.409462        -0.284396
 H        -2.385672        -0.310511         0.777055
 H        -1.526049        -0.796720        -0.636628
 H        -0.748672         3.257507         0.428760
 H        -1.835177         2.422171         1.687632
