19
Iteration:  3696charge 0 multiplicity 1
 O         0.213246         0.321223         0.796416
 C        -0.804046         1.043310         0.152586
 C        -0.659450         1.575900        -1.353914
 C        -1.934049         2.303820        -0.901512
 C        -2.966260         2.713357        -1.959686
 O        -3.362084         1.219901        -1.996822
 C        -2.912935         1.051319        -0.647320
 C        -1.987472         0.073861         0.026341
 C        -1.244658         2.688463         0.453886
 H         0.918606         0.891310         1.053977
 H         0.097998         2.380266        -1.458603
 H        -0.757369         0.704410        -2.020411
 H        -3.898144         3.197040        -1.491544
 H        -2.715512         2.995460        -3.033822
 H        -3.836682         1.125597        -0.060242
 H        -2.229565        -0.219869         0.963230
 H        -1.631653        -0.776593        -0.577842
 H        -0.355248         3.373221         0.411248
 H        -1.723029         2.856995         1.396940
