19
Iteration:  2599charge 0 multiplicity 1
 O         0.433652         0.465612         0.681296
 C        -0.788718         0.994764         0.182207
 C        -0.715124         1.541047        -1.278489
 C        -1.967973         2.352046        -0.833964
 C        -2.997530         2.681640        -2.061635
 O        -3.408103         1.253721        -1.967409
 C        -2.919715         1.202298        -0.634951
 C        -2.001969         0.028543        -0.021507
 C        -1.275399         2.520997         0.534736
 H         0.227420        -0.299810         1.324062
 H         0.224827         2.196698        -1.497610
 H        -0.853193         0.806498        -2.145329
 H        -3.800252         3.440013        -1.825351
 H        -2.692189         2.941849        -3.128984
 H        -3.777924         1.541315         0.064654
 H        -2.485702        -0.335433         0.938321
 H        -1.543871        -0.857501        -0.522371
 H        -0.401664         3.202301         0.603701
 H        -1.918638         2.596678         1.349834
