19
Iteration:   251charge 0 multiplicity 1
 O         0.349331         0.520213         0.840802
 C        -0.714331         1.006569         0.124568
 C        -0.600515         1.808438        -1.335513
 C        -1.991379         2.361180        -0.767778
 C        -3.047545         2.701254        -1.789718
 O        -3.309588         1.238960        -2.120905
 C        -2.911426         1.063186        -0.691134
 C        -1.941108        -0.051093        -0.276662
 C        -1.415976         2.389477         0.635510
 H         0.047987        -0.324304         1.091292
 H         0.156757         2.528314        -1.376335
 H        -0.779908         1.244249        -2.250334
 H        -3.952189         3.245828        -1.470111
 H        -2.670978         3.190473        -2.657035
 H        -3.761772         1.127237        -0.001144
 H        -2.158741        -0.810621         0.488491
 H        -1.667703        -0.668094        -1.194963
 H        -0.693783         3.091821         0.925822
 H        -2.292256         2.479642         1.356425
