19
Iteration:  3999
 O         0.445609         0.479801         0.726444
 C        -0.760813         1.059674         0.192497
 C        -0.721049         1.531913        -1.214079
 C        -1.976818         2.273386        -0.838562
 C        -2.822162         2.650742        -2.045569
 O        -3.466449         1.296859        -2.020519
 C        -2.941257         1.095935        -0.636253
 C        -1.968431         0.085861        -0.034622
 C        -1.474239         2.423231         0.526321
 H         1.162000         0.989570         0.205424
 H         0.037014         2.268724        -1.359720
 H        -0.762686         0.709427        -1.892527
 H        -3.676064         3.490549        -1.776246
 H        -2.352056         2.912508        -3.072914
 H        -3.767161         1.367921         0.192917
 H        -2.471256        -0.093971         0.879631
 H        -1.651699        -0.691512        -0.643521
 H        -0.661704         3.217399         0.617284
 H        -2.161021         2.542288         1.382267
