19
Iteration:  4357
 O         0.409813         0.433516         0.781526
 C        -0.721612         0.996650         0.159294
 C        -0.629473         1.636083        -1.253332
 C        -1.960352         2.308490        -0.843141
 C        -2.946727         2.672261        -2.048446
 O        -3.442751         1.299107        -2.073105
 C        -2.962707         1.114893        -0.654724
 C        -1.941319         0.077639        -0.066419
 C        -1.479626         2.367937         0.623561
 H         1.079936         1.096219         0.773392
 H         0.118397         2.401747        -1.281980
 H        -0.520821         1.173083        -2.236527
 H        -3.679261         3.471493        -1.711843
 H        -2.491303         3.036102        -2.964384
 H        -3.887626         1.284815        -0.172286
 H        -2.365060        -0.332198         0.919477
 H        -1.579772        -0.768525        -0.719779
 H        -0.858930         3.242850         0.907278
 H        -2.201662         2.172265         1.372140
