19
Iteration:    94
 O         0.551556         0.649227         0.769549
 C        -0.786411         0.997046         0.181147
 C        -0.721795         1.613192        -1.160310
 C        -2.058412         2.280083        -0.774898
 C        -2.973766         2.795097        -1.940202
 O        -3.406757         1.308307        -2.093257
 C        -2.936017         1.024586        -0.749422
 C        -1.945986        -0.056958        -0.215436
 C        -1.458523         2.372499         0.630915
 H         0.544924        -0.329417         0.686651
 H         0.109639         2.346749        -1.177936
 H        -0.549856         1.111832        -2.122551
 H        -3.917514         3.344955        -1.766350
 H        -2.478865         3.115038        -2.845594
 H        -3.839742         1.263602        -0.138343
 H        -2.307321        -0.657462         0.665844
 H        -1.478618        -0.703447        -0.962612
 H        -0.532061         3.058414         0.699862
 H        -1.908916         2.425946         1.701099
