19
Iteration:   625
 O         0.336593         0.462027         0.799802
 C        -0.700642         1.034566         0.101834
 C        -0.639589         1.760502        -1.283861
 C        -2.031516         2.294612        -0.781402
 C        -3.077983         2.712699        -1.944774
 O        -3.342824         1.301386        -2.089946
 C        -2.875346         1.056696        -0.692695
 C        -1.937218         0.005733        -0.084267
 C        -1.359684         2.408271         0.601751
 H         0.329311        -0.479446         0.663437
 H         0.209320         2.413118        -1.392008
 H        -0.602816         1.133338        -2.167201
 H        -4.140137         3.229460        -1.791000
 H        -2.547536         3.187931        -2.848510
 H        -3.684209         1.127933         0.107972
 H        -2.211489        -0.446296         0.947912
 H        -1.724828        -0.883176        -0.753861
 H        -0.800747         3.420599         0.549551
 H        -1.873301         2.404473         1.548863
