19
Iteration:  2138charge 0 multiplicity 1
 O         0.376305         0.351211         0.811855
 C        -0.728699         0.997278         0.103988
 C        -0.658060         1.542322        -1.349870
 C        -1.974038         2.333188        -0.913300
 C        -3.082510         2.708410        -1.865593
 O        -3.368057         1.227286        -2.052624
 C        -2.915516         1.163165        -0.640426
 C        -1.972832         0.168873         0.010936
 C        -1.255204         2.569479         0.409872
 H        -0.025663        -0.166499         1.548281
 H         0.001009         2.357297        -1.521578
 H        -0.652457         0.856253        -2.186528
 H        -4.006765         3.129699        -1.306252
 H        -2.849234         3.109682        -2.842194
 H        -3.823592         1.257852         0.024664
 H        -2.331826        -0.146793         0.995890
 H        -1.795371        -0.808936        -0.481955
 H        -0.320846         3.231691         0.384599
 H        -1.889984         2.724878         1.384744
