19
Iteration:  1568charge 0 multiplicity 1
 O         0.235954         0.358109         0.729016
 C        -0.788015         1.065391         0.135311
 C        -0.549135         1.671797        -1.237623
 C        -1.931518         2.346298        -0.867694
 C        -2.975634         2.637668        -2.032963
 O        -3.445813         1.235730        -1.980292
 C        -2.909603         1.137237        -0.625573
 C        -1.993290         0.087252        -0.112775
 C        -1.303066         2.476609         0.595686
 H         0.930096         0.965285         1.115301
 H         0.281591         2.421823        -1.390861
 H        -0.559831         0.880718        -2.095553
 H        -3.765944         3.310940        -1.681034
 H        -2.562111         2.825937        -3.024194
 H        -3.626288         1.193178         0.188993
 H        -2.307595        -0.433473         0.781897
 H        -1.691159        -0.610561        -0.882213
 H        -0.516156         3.086900         0.545340
 H        -2.042946         2.381345         1.431917
