19
Iteration:  3665charge 0 multiplicity 1
 O         0.417045         0.381460         0.773664
 C        -0.753710         1.034157         0.194097
 C        -0.741509         1.488954        -1.339707
 C        -1.981919         2.272972        -0.917772
 C        -2.953209         2.725683        -1.979849
 O        -3.337456         1.242645        -2.098404
 C        -2.981752         1.152170        -0.626727
 C        -2.031838         0.154619         0.087847
 C        -1.276822         2.492196         0.492271
 H         0.702087         1.123463         1.404003
 H         0.075353         2.210905        -1.678728
 H        -0.766938         0.719141        -2.101462
 H        -3.900689         3.309417        -1.585745
 H        -2.801315         3.101883        -3.000581
 H        -3.865250         1.385749        -0.110322
 H        -2.432416        -0.213896         1.054052
 H        -1.950358        -0.703399        -0.601525
 H        -0.446033         3.228849         0.615484
 H        -1.846030         2.589037         1.495714
