19
Iteration:  4818
 O         0.428501         0.555452         0.808526
 C        -0.759835         0.966767         0.146397
 C        -0.668709         1.565036        -1.249859
 C        -2.010981         2.220264        -0.844371
 C        -2.905745         2.822364        -1.955925
 O        -3.436438         1.345664        -2.117076
 C        -2.881327         1.063784        -0.727848
 C        -1.896893        -0.029746        -0.077055
 C        -1.537744         2.369596         0.604610
 H         1.110464         1.269277         0.906500
 H        -0.078438         2.518538        -1.394527
 H        -0.662874         0.724612        -1.999666
 H        -3.770040         3.594159        -1.914566
 H        -2.391122         3.008456        -2.906098
 H        -3.801119         1.193980        -0.023208
 H        -2.421239        -0.270091         0.795278
 H        -1.643462        -0.969803        -0.438839
 H        -0.759567         3.125132         0.840921
 H        -2.134182         2.243256         1.537479
