19
Iteration:  2540charge 0 multiplicity 1
 O         0.440466         0.451946         0.875284
 C        -0.713401         0.906258         0.106732
 C        -0.688388         1.501589        -1.409209
 C        -1.945963         2.283968        -0.890583
 C        -3.029581         2.697670        -2.003650
 O        -3.622540         1.416313        -2.016821
 C        -2.822770         1.152906        -0.631588
 C        -1.939151        -0.000799        -0.028366
 C        -1.299949         2.504378         0.520985
 H         0.455160         0.852567         1.737100
 H         0.214494         2.105625        -1.495700
 H        -0.897908         0.901597        -2.307258
 H        -3.743573         3.526701        -1.660156
 H        -2.456964         2.755213        -3.004788
 H        -3.617273         1.378538         0.032143
 H        -2.329288        -0.374590         0.881574
 H        -1.540149        -0.850693        -0.600482
 H        -0.411146         3.142242         0.581276
 H        -2.106505         2.712735         1.348570
