19
Iteration:   208charge 0 multiplicity 1
 O         0.480668         0.573775         0.890711
 C        -0.707319         0.980035         0.147179
 C        -0.571640         1.724853        -1.234074
 C        -1.977211         2.239254        -0.817615
 C        -2.968335         2.756464        -1.928955
 O        -3.588177         1.401812        -2.102925
 C        -2.903797         0.996667        -0.777962
 C        -1.841087        -0.050424        -0.233178
 C        -1.586121         2.380244         0.684926
 H         0.703268        -0.240583         0.498274
 H         0.266068         2.327210        -1.358795
 H        -0.582590         1.138833        -2.151110
 H        -3.759956         3.430712        -1.517127
 H        -2.594807         3.191067        -2.887993
 H        -3.629317         1.077927         0.057231
 H        -2.193646        -0.743947         0.529969
 H        -1.348470        -0.709631        -1.018476
 H        -0.952735         3.160056         0.898894
 H        -2.138648         2.039528         1.486055
