19
Iteration:  2865charge 0 multiplicity 1
 O         0.400875         0.351181         0.879853
 C        -0.684364         1.043621         0.135029
 C        -0.689741         1.622525        -1.414134
 C        -1.944796         2.342172        -0.880455
 C        -3.065645         2.734024        -1.929877
 O        -3.416005         1.235270        -2.024457
 C        -2.905415         1.131856        -0.638921
 C        -2.002196         0.045816        -0.103280
 C        -1.273044         2.510200         0.470363
 H         0.149810         0.423899         1.820976
 H         0.178567         2.365754        -1.493646
 H        -0.729967         0.770904        -2.214195
 H        -3.927161         3.320158        -1.425260
 H        -2.804774         3.041895        -2.927161
 H        -3.702841         1.594873         0.141642
 H        -2.404402        -0.220114         0.839609
 H        -1.807504        -0.800143        -0.702611
 H        -0.424996         3.097406         0.618752
 H        -2.108464         2.449839         1.207890
