19
Iteration:  2408
 O         0.382740         0.441899         0.763771
 C        -0.722339         1.041058         0.092593
 C        -0.628981         1.483583        -1.391487
 C        -1.926378         2.246536        -0.911327
 C        -3.006642         2.686169        -1.984313
 O        -3.442635         1.250500        -1.989991
 C        -2.991199         1.212224        -0.583767
 C        -2.016756         0.160183        -0.041492
 C        -1.236245         2.497642         0.562265
 H         0.243763        -0.065256         1.558060
 H         0.099333         2.285794        -1.586743
 H        -0.580426         0.634379        -2.122127
 H        -3.849090         3.229710        -1.530805
 H        -2.958994         3.095475        -3.030872
 H        -3.722183         1.525749         0.249944
 H        -2.216392        -0.210495         0.955090
 H        -1.984192        -0.606463        -0.762051
 H        -0.424427         3.136113         0.724334
 H        -1.915407         2.562927         1.470416
