19
Iteration:  2937charge 0 multiplicity 1
 O         0.458912         0.501315         0.685037
 C        -0.775395         1.001142         0.147556
 C        -0.605938         1.592417        -1.285928
 C        -1.954876         2.306965        -0.894361
 C        -2.880250         2.687423        -2.035914
 O        -3.491270         1.281118        -1.986398
 C        -2.967680         1.171386        -0.585065
 C        -2.014147         0.071369        -0.066739
 C        -1.397352         2.403732         0.580296
 H         0.276612         0.020776         1.470093
 H         0.111088         2.395704        -1.299548
 H        -0.593488         0.850123        -2.048945
 H        -3.720390         3.382703        -1.866698
 H        -2.338289         2.870875        -3.027650
 H        -3.772268         1.241640         0.144349
 H        -2.419858        -0.344718         0.986571
 H        -1.756997        -0.715944        -0.873123
 H        -0.639588         3.254205         0.729212
 H        -2.092398         2.311157         1.505086
