19
Iteration:  3302
 O         0.488443         0.523601         0.749827
 C        -0.749371         0.896020         0.156230
 C        -0.751274         1.518954        -1.264545
 C        -1.968714         2.331441        -0.838902
 C        -2.939168         2.718046        -1.979730
 O        -3.367020         1.341178        -2.099979
 C        -2.940658         1.083472        -0.682784
 C        -2.024807         0.031691        -0.061037
 C        -1.400669         2.443324         0.640534
 H         0.919742         1.394807         0.942323
 H         0.093151         2.117760        -1.467410
 H        -0.831384         0.860396        -2.121403
 H        -3.841503         3.349623        -1.479748
 H        -2.626664         2.979097        -3.016690
 H        -3.733266         1.330585        -0.062892
 H        -2.519575        -0.219232         0.883864
 H        -1.880777        -0.905377        -0.768756
 H        -0.577207         3.114314         0.963691
 H        -2.255847         2.457514         1.311040
