19
Iteration:  3350
 O         0.264271         0.199554         0.856086
 C        -0.704142         1.013591         0.080850
 C        -0.635953         1.723159        -1.297253
 C        -2.033710         2.415260        -0.856621
 C        -3.014908         2.673241        -1.969404
 O        -3.353254         1.180201        -2.075153
 C        -2.923161         1.138051        -0.645654
 C        -1.848498         0.100738        -0.055555
 C        -1.417512         2.604357         0.580470
 H         1.223073         0.321137         0.658536
 H         0.165046         2.523743        -1.403087
 H        -0.850781         1.256501        -2.276696
 H        -4.040593         3.111274        -1.481238
 H        -2.618691         3.090806        -2.907756
 H        -3.949642         1.191253        -0.086647
 H        -2.001290        -0.238156         0.980207
 H        -1.573760        -0.662844        -0.756851
 H        -0.540465         3.296075         0.485738
 H        -2.071197         2.597453         1.475074
