19
Iteration:  4286
 O         0.280661         0.371380         0.863397
 C        -0.761583         1.042475         0.076673
 C        -0.539480         1.656650        -1.333208
 C        -1.945685         2.304502        -0.858046
 C        -3.060863         2.657209        -1.904069
 O        -3.340680         1.208015        -2.039052
 C        -2.927134         1.134144        -0.682647
 C        -1.957448         0.156736        -0.102478
 C        -1.374121         2.411880         0.544224
 H         0.985745         0.978842         0.984227
 H         0.249714         2.479358        -1.357577
 H        -0.434285         1.020731        -2.228149
 H        -3.892907         3.066633        -1.382641
 H        -3.020300         3.238415        -2.850961
 H        -3.745922         1.483175         0.015088
 H        -2.409249        -0.266565         0.761235
 H        -1.813095        -0.573125        -0.846810
 H        -0.616690         3.241038         0.647018
 H        -2.158939         2.281787         1.405287
