19
Iteration:  2201
 O         0.551717         0.560020         0.704888
 C        -0.751707         0.993032         0.197866
 C        -0.603409         1.488227        -1.257238
 C        -1.954143         2.257156        -0.909337
 C        -2.901156         2.633329        -2.027964
 O        -3.600454         1.417771        -1.935215
 C        -2.917872         1.145110        -0.601970
 C        -2.123037        -0.104172        -0.084306
 C        -1.378864         2.534281         0.512739
 H         0.563772         0.221628         1.666476
 H         0.117643         2.324687        -1.489075
 H        -0.550578         0.844166        -2.226469
 H        -3.358968         3.569151        -1.928895
 H        -2.318801         2.852873        -2.975517
 H        -3.729060         1.439585         0.066060
 H        -2.478549        -0.655026         0.857722
 H        -1.803843        -0.798648        -0.861092
 H        -0.555125         3.091755         0.582424
 H        -2.160382         2.700864         1.258312
