19
Iteration:  3684
 O         0.255021         0.308037         0.770540
 C        -0.725304         1.078963         0.141788
 C        -0.686793         1.518951        -1.263592
 C        -2.024772         2.320360        -0.837596
 C        -3.038694         2.635950        -1.929090
 O        -3.312254         1.266111        -2.086485
 C        -2.931555         1.116113        -0.608939
 C        -1.944422         0.062002         0.035755
 C        -1.266063         2.651975         0.408888
 H         0.852615         0.892353         1.309761
 H         0.251076         1.980631        -1.560313
 H        -0.837267         0.863864        -2.185468
 H        -3.874227         3.347627        -1.659869
 H        -2.550662         3.143743        -2.862581
 H        -3.742414         1.460750         0.092921
 H        -2.426489        -0.268997         0.879860
 H        -1.653373        -0.890750        -0.465537
 H        -0.385617         3.312469         0.197434
 H        -1.922626         2.945036         1.163535
