19
Iteration:   573
 O         0.488752         0.573844         0.732193
 C        -0.793001         0.930654         0.167620
 C        -0.628189         1.592247        -1.188550
 C        -1.937922         2.330377        -0.832140
 C        -3.075318         2.742414        -1.936623
 O        -3.414293         1.344498        -2.057753
 C        -2.942160         1.084591        -0.723217
 C        -1.948422        -0.026579        -0.219665
 C        -1.407449         2.348109         0.588932
 H         0.368674         0.822932         1.703045
 H         0.202463         2.286213        -1.102679
 H        -0.543130         0.896395        -2.068090
 H        -3.877228         3.330440        -1.525859
 H        -2.821060         3.185223        -2.969068
 H        -3.714874         1.103697         0.028987
 H        -2.302792        -0.484354         0.706801
 H        -1.645475        -0.597065        -1.102723
 H        -0.498751         2.875534         1.071972
 H        -2.178544         2.462090         1.402649
