19
Iteration:  3337charge 0 multiplicity 1
 O         0.204808         0.250569         0.799883
 C        -0.679135         1.099778         0.065665
 C        -0.687062         1.771978        -1.343391
 C        -2.011422         2.277778        -0.783395
 C        -2.991281         2.614016        -1.916340
 O        -3.247591         1.196592        -2.055809
 C        -2.964700         1.070238        -0.632592
 C        -1.969075         0.171799        -0.075734
 C        -1.317418         2.541735         0.552274
 H         1.118969         0.604133         0.737557
 H        -0.061529         2.628093        -1.367036
 H        -0.529040         1.101647        -2.187148
 H        -3.916871         3.320972        -1.577325
 H        -2.672572         3.064613        -2.845204
 H        -3.855208         1.189856        -0.027226
 H        -2.307647        -0.260350         0.849118
 H        -1.758332        -0.768434        -0.712014
 H        -0.548288         3.361155         0.655454
 H        -1.958152         2.618335         1.392803
