19
Iteration:   831
 O         0.387732         0.538012         0.896952
 C        -0.710311         0.983737         0.022456
 C        -0.624356         1.576215        -1.343021
 C        -2.021357         2.328307        -0.824997
 C        -3.034880         2.706847        -1.932474
 O        -3.327766         1.246598        -2.018655
 C        -2.976835         1.159996        -0.677387
 C        -2.040975         0.033349        -0.107141
 C        -1.300731         2.423801         0.617148
 H         0.887891        -0.195271         0.358152
 H         0.227989         2.307525        -1.619885
 H        -0.634025         0.910967        -2.309537
 H        -3.963010         3.247491        -1.429766
 H        -2.836915         3.173832        -2.911654
 H        -3.899285         1.242871        -0.154590
 H        -2.476278        -0.339993         0.839429
 H        -1.879292        -0.683891        -0.921119
 H        -0.625487         3.406642         0.653030
 H        -1.856528         2.426105         1.617792
