19
Iteration:  3764
 O         0.353368         0.627310         0.840985
 C        -0.741525         1.051970         0.126993
 C        -0.579125         1.447409        -1.244594
 C        -1.984315         2.269797        -0.860349
 C        -2.877037         2.637890        -2.007317
 O        -3.525118         1.396994        -1.985033
 C        -2.976198         1.033442        -0.650139
 C        -2.015712        -0.015909        -0.033602
 C        -1.337086         2.483068         0.437144
 H         0.728348        -0.061882         0.263589
 H         0.211372         2.245494        -1.312231
 H        -0.656822         0.714915        -2.015062
 H        -3.542133         3.568217        -1.712733
 H        -2.232687         2.779318        -2.862151
 H        -3.795151         1.217392         0.087030
 H        -2.298311        -0.468633         0.853554
 H        -1.685913        -0.676815        -0.783169
 H        -0.544230         3.219910         0.460389
 H        -1.925995         2.783068         1.335867
