19
Iteration:   611
 O         0.341097         0.467192         0.802074
 C        -0.739952         1.017642         0.056623
 C        -0.647025         1.687837        -1.346002
 C        -2.057185         2.274654        -0.812824
 C        -2.985558         2.727167        -1.873982
 O        -3.344346         1.312495        -2.061876
 C        -2.940249         1.008335        -0.670950
 C        -1.811517         0.069073        -0.110917
 C        -1.427121         2.449871         0.581536
 H         0.068088        -0.476171         1.105769
 H        -0.061685         2.636675        -1.214796
 H        -0.597952         1.155398        -2.306916
 H        -3.785941         3.348515        -1.400708
 H        -2.651484         3.117967        -2.787452
 H        -3.946112         1.101009        -0.163143
 H        -2.247089        -0.239380         0.881723
 H        -1.417914        -0.808762        -0.663787
 H        -0.482617         2.996428         0.655043
 H        -2.130381         2.476688         1.387208
