19
Iteration:  1464charge 0 multiplicity 1
 O         0.402430         0.562184         0.721488
 C        -0.753353         1.018026         0.148666
 C        -0.710878         1.628360        -1.272172
 C        -2.011836         2.288810        -0.791298
 C        -2.928842         2.674807        -1.976782
 O        -3.333795         1.264689        -2.087161
 C        -2.945367         1.127370        -0.657446
 C        -1.950558         0.134831        -0.110576
 C        -1.405384         2.323053         0.633134
 H         0.280179        -0.286998         1.043228
 H         0.249615         2.107561        -1.395326
 H        -0.835642         0.900847        -2.056865
 H        -3.687115         3.405720        -1.624115
 H        -2.603460         3.055614        -2.954388
 H        -3.815781         1.345785         0.084372
 H        -2.359221        -0.372339         0.900105
 H        -1.869469        -0.707798        -0.947134
 H        -0.605962         3.098797         0.873111
 H        -1.984154         2.480758         1.462573
