19
Iteration:  1435
 O         0.367227         0.294046         0.701583
 C        -0.694781         1.034398         0.147525
 C        -0.584814         1.834948        -1.258578
 C        -2.047057         2.338376        -0.798007
 C        -3.001040         2.672826        -1.970709
 O        -3.364710         1.214730        -2.054568
 C        -2.898317         1.062464        -0.632439
 C        -1.968540         0.035832        -0.122814
 C        -1.406165         2.542759         0.550776
 H        -0.024718         0.014732         1.573100
 H         0.173282         2.695602        -1.156241
 H        -0.502498         1.077809        -2.069724
 H        -3.882189         3.272088        -1.675567
 H        -2.551524         2.944489        -2.964110
 H        -3.763585         1.219180         0.001637
 H        -2.349007        -0.322574         0.837999
 H        -1.870028        -0.816276        -0.787178
 H        -0.551475         3.219572         0.697082
 H        -2.116905         2.883818         1.415595
