19
Iteration:  3118
 O         0.311095         0.357153         0.846705
 C        -0.713498         1.045473         0.165966
 C        -0.650058         1.562768        -1.295427
 C        -1.979872         2.328255        -0.885686
 C        -3.053909         2.729027        -1.975228
 O        -3.374848         1.262508        -2.061330
 C        -2.937067         1.163248        -0.716274
 C        -1.954414         0.113324        -0.016733
 C        -1.339394         2.466449         0.597274
 H         1.081522         0.444883         0.193964
 H         0.267382         2.254212        -1.452603
 H        -0.605607         0.735842        -2.093580
 H        -3.821843         3.325527        -1.510158
 H        -2.817471         3.022591        -2.960579
 H        -3.830248         1.428534        -0.188801
 H        -2.227021        -0.347495         0.901394
 H        -1.703028        -0.711701        -0.725669
 H        -0.494175         3.233844         0.474413
 H        -1.908565         2.389299         1.536813
