19
Iteration:   689
 O         0.384893         0.461642         0.845749
 C        -0.749416         0.997148         0.117393
 C        -0.693513         1.660718        -1.295980
 C        -2.003375         2.206086        -0.800929
 C        -2.931290         2.732571        -1.961282
 O        -3.489414         1.364936        -2.064934
 C        -2.916273         1.032093        -0.733028
 C        -1.866765         0.009268        -0.085741
 C        -1.406215         2.382314         0.594180
 H         1.054944         1.194428         0.598694
 H         0.281091         2.231208        -1.379823
 H        -0.876622         1.119063        -2.251598
 H        -3.620548         3.426185        -1.533115
 H        -2.575907         3.192226        -2.851609
 H        -3.865568         1.202461        -0.155283
 H        -2.314378        -0.290511         0.932487
 H        -1.503028        -0.833637        -0.722889
 H        -0.712265         3.314380         0.622109
 H        -2.010894         2.562834         1.456640
