19
Iteration:  2691
 O         0.497053         0.540289         0.717904
 C        -0.701652         0.991008         0.146255
 C        -0.667867         1.536033        -1.255538
 C        -1.958183         2.264314        -0.842713
 C        -2.827809         2.645932        -2.027524
 O        -3.560378         1.382448        -1.955077
 C        -2.939660         1.155760        -0.582424
 C        -2.057731         0.010690        -0.090098
 C        -1.397200         2.398084         0.465330
 H         0.555025         0.575921         1.644626
 H         0.045620         2.340171        -1.491749
 H        -0.757921         0.822561        -2.115615
 H        -3.508596         3.534963        -2.007062
 H        -2.433228         2.712060        -3.014180
 H        -3.751025         1.492787         0.256513
 H        -2.565900        -0.443903         0.927012
 H        -1.886281        -0.788564        -0.869247
 H        -0.552178         3.101441         0.595976
 H        -2.142142         2.463818         1.328981
