19
Iteration:  2492charge 0 multiplicity 1
 O         0.347526         0.406658         0.741574
 C        -0.799765         1.003578         0.071024
 C        -0.634554         1.562830        -1.334609
 C        -1.881253         2.411573        -0.910610
 C        -3.025225         2.677949        -1.936841
 O        -3.433149         1.260111        -1.965412
 C        -2.892353         1.133076        -0.608664
 C        -2.050052         0.042317        -0.014306
 C        -1.232814         2.511640         0.458248
 H         0.376692         0.735395         1.682056
 H         0.336819         2.003339        -1.423980
 H        -0.782312         0.828174        -2.105873
 H        -3.881050         3.119060        -1.416421
 H        -2.887165         2.997024        -2.923736
 H        -3.685383         1.548852        -0.021203
 H        -2.413855        -0.338653         1.024961
 H        -1.865140        -0.840663        -0.631752
 H        -0.318874         3.153881         0.564946
 H        -1.928600         2.602832         1.355646
