19
Iteration:   150
 O         0.390312         0.367412         0.783667
 C        -0.698645         0.987162         0.094959
 C        -0.681975         1.839630        -1.297128
 C        -2.013670         2.377530        -0.756261
 C        -3.153070         2.668593        -1.940230
 O        -3.237906         1.240339        -2.135510
 C        -2.871016         1.115802        -0.708868
 C        -1.994433         0.070995        -0.195180
 C        -1.369321         2.307407         0.710030
 H         0.848536         1.211219         1.161559
 H         0.032487         2.669128        -1.376172
 H        -0.862640         1.193093        -2.124542
 H        -4.154224         3.009066        -1.550812
 H        -2.880954         3.157802        -2.826040
 H        -3.762495         1.305705        -0.043902
 H        -2.350845        -0.290301         0.811059
 H        -1.798991        -0.777347        -0.876956
 H        -0.627000         2.974511         1.210277
 H        -2.100003         2.005341         1.570451
