19
Iteration:  3346
 O         0.246720         0.204807         0.846431
 C        -0.696613         1.051682         0.048766
 C        -0.656658         1.741685        -1.309693
 C        -2.000959         2.361670        -0.837612
 C        -3.017503         2.656521        -1.949209
 O        -3.318152         1.175676        -2.065319
 C        -2.969141         1.137291        -0.639044
 C        -1.880547         0.137209        -0.056348
 C        -1.394445         2.590949         0.574566
 H         1.219461         0.335898         0.725571
 H         0.005021         2.533988        -1.367657
 H        -0.759032         1.270779        -2.290392
 H        -3.926280         3.087610        -1.447371
 H        -2.552244         3.035433        -2.844532
 H        -3.890991         1.074084        -0.219263
 H        -2.056530        -0.218746         0.951352
 H        -1.598600        -0.771035        -0.820956
 H        -0.555407         3.326093         0.600089
 H        -1.969680         2.698985         1.462020
