19
Iteration:  2907charge 0 multiplicity 1
 O         0.466493         0.601027         0.763488
 C        -0.794726         0.971844         0.171822
 C        -0.638552         1.430142        -1.293949
 C        -1.935483         2.253183        -0.932937
 C        -2.957313         2.782109        -1.877362
 O        -3.483397         1.373754        -2.055586
 C        -2.944227         1.090984        -0.696814
 C        -2.027196        -0.037033        -0.082028
 C        -1.337072         2.470513         0.540114
 H         0.540256         0.730668         1.769136
 H         0.241137         2.090118        -1.543200
 H        -0.799217         0.723264        -2.177572
 H        -3.711720         3.361639        -1.373407
 H        -2.561409         3.182188        -2.799625
 H        -3.751202         1.062945         0.043020
 H        -2.488933        -0.462442         0.733714
 H        -1.671656        -0.853202        -0.616793
 H        -0.495153         3.098733         0.447481
 H        -2.029050         2.528798         1.458953
