19
Iteration:  2993charge 0 multiplicity 1
 O         0.415909         0.423936         0.734099
 C        -0.763594         1.036684         0.129754
 C        -0.666710         1.509731        -1.256718
 C        -1.933008         2.295032        -0.862720
 C        -3.045765         2.682238        -1.882403
 O        -3.311193         1.266325        -2.083182
 C        -2.943040         1.171047        -0.625536
 C        -2.006314         0.134373        -0.079707
 C        -1.345461         2.537588         0.528045
 H        -0.036923        -0.327122         1.202686
 H         0.023677         2.281621        -1.565128
 H        -0.700206         0.761168        -2.041712
 H        -3.935027         3.261271        -1.590174
 H        -2.700924         3.065239        -2.878052
 H        -3.845621         1.427161        -0.031769
 H        -2.387755        -0.379077         0.948667
 H        -1.736589        -0.701540        -0.795406
 H        -0.520258         3.217728         0.649480
 H        -1.991810         2.547140         1.495440
