19
Iteration:  2509charge 0 multiplicity 1
 O         0.213234         0.437867         0.753306
 C        -0.765589         1.064149         0.100217
 C        -0.576924         1.471767        -1.362408
 C        -1.928735         2.199381        -0.936849
 C        -3.068326         2.690305        -1.820775
 O        -3.409615         1.248117        -1.992806
 C        -2.903119         1.190069        -0.589708
 C        -1.999444         0.138033        -0.062944
 C        -1.204275         2.496144         0.453081
 H         0.339398         0.785813         1.666276
 H         0.226133         2.312520        -1.449894
 H        -0.448769         0.784304        -2.244229
 H        -3.789128         3.353076        -1.228361
 H        -2.755997         3.193279        -2.835485
 H        -3.675227         1.396115         0.231770
 H        -2.233264        -0.427102         0.760212
 H        -1.648278        -0.638915        -0.806919
 H        -0.314251         3.105126         0.289823
 H        -1.820788         2.749594         1.298340
