19
Iteration:   913charge 0 multiplicity 1
 O         0.342645         0.516782         0.754889
 C        -0.751405         1.011226         0.081448
 C        -0.640289         1.632018        -1.238389
 C        -1.948549         2.282720        -0.897072
 C        -2.949367         2.669283        -2.038127
 O        -3.459952         1.308660        -1.976499
 C        -2.940445         1.152790        -0.614236
 C        -2.018757        -0.048932        -0.139105
 C        -1.297446         2.393968         0.644104
 H         0.957273         1.234257         1.067034
 H         0.164107         2.373037        -1.530103
 H        -0.734322         0.991822        -2.163109
 H        -3.703274         3.421325        -1.871607
 H        -2.439650         2.928726        -3.009945
 H        -3.800476         1.370305         0.130915
 H        -2.384639        -0.492517         0.852002
 H        -1.848031        -1.101331        -0.692563
 H        -0.459963         3.163362         0.809812
 H        -1.936603         2.379289         1.590511
