19
Iteration:  1521charge 0 multiplicity 1
 O         0.277687         0.521176         0.944048
 C        -0.710702         1.063843         0.126358
 C        -0.616708         1.505421        -1.356695
 C        -1.991645         2.226785        -0.847768
 C        -3.002939         2.766125        -1.893478
 O        -3.474347         1.339179        -2.087887
 C        -2.949894         1.079994        -0.737440
 C        -1.892676         0.051285        -0.114822
 C        -1.321994         2.439815         0.560009
 H         1.018283         0.112607         0.371101
 H         0.261588         2.194107        -1.470543
 H        -0.592044         0.734316        -2.131992
 H        -3.723851         3.402567        -1.372884
 H        -2.588608         3.181702        -2.830815
 H        -3.636396         1.373957         0.132090
 H        -2.310424        -0.445339         0.886253
 H        -1.490718        -0.779875        -0.821641
 H        -0.544915         3.198300         0.641234
 H        -2.030271         2.262783         1.289946
