19
Iteration:  2274
 O         0.335688         0.358728         0.671031
 C        -0.803783         1.009879         0.209921
 C        -0.676222         1.580923        -1.307727
 C        -1.971536         2.363994        -0.922640
 C        -3.131525         2.675660        -1.927216
 O        -3.336030         1.222526        -2.033304
 C        -2.836123         1.168105        -0.605022
 C        -1.993675         0.095995         0.007812
 C        -1.194375         2.574186         0.515050
 H         0.019168        -0.001266         1.552406
 H         0.185239         2.144065        -1.615156
 H        -0.717843         0.746524        -2.011167
 H        -4.135383         3.109554        -1.735998
 H        -2.808651         3.117000        -2.919628
 H        -3.717693         1.453190         0.128475
 H        -2.524596        -0.353946         0.861853
 H        -1.668995        -0.671346        -0.620088
 H        -0.151786         3.132729         0.388589
 H        -1.794973         2.991378         1.342207
