19
Iteration:  1755
 O         0.436232         0.557290         0.891886
 C        -0.677219         0.901077         0.124433
 C        -0.679870         1.536618        -1.408892
 C        -1.975933         2.234679        -0.911837
 C        -3.030870         2.783545        -1.884815
 O        -3.423358         1.337775        -2.125331
 C        -2.969039         1.130853        -0.653426
 C        -1.985277         0.052568         0.060428
 C        -1.308150         2.442817         0.467533
 H         0.350807        -0.330297         1.174510
 H        -0.011301         2.380281        -1.735864
 H        -0.721538         0.749786        -2.243732
 H        -3.842530         3.347310        -1.387753
 H        -2.509494         3.358420        -2.656352
 H        -3.833642         1.410277        -0.080008
 H        -2.514357        -0.191221         1.132573
 H        -1.757167        -0.863341        -0.527319
 H        -0.504250         3.062101         0.371704
 H        -1.954009         2.369909         1.385031
