19
Iteration:  4452charge 0 multiplicity 1
 O         0.408710         0.645149         0.808244
 C        -0.757040         0.953146         0.155228
 C        -0.590434         1.521695        -1.244421
 C        -1.986073         2.243101        -0.879174
 C        -2.896213         2.782599        -1.849634
 O        -3.406421         1.342502        -2.122668
 C        -2.931433         1.123863        -0.681255
 C        -2.031152        -0.057894        -0.100210
 C        -1.463974         2.277615         0.527895
 H         0.928694         1.436934         0.882591
 H         0.110021         2.351288        -1.285426
 H        -0.392994         1.009096        -2.240723
 H        -3.806752         3.267649        -1.565104
 H        -2.652678         3.148727        -2.806969
 H        -3.757235         1.405253        -0.006710
 H        -2.422065        -0.399077         0.762571
 H        -1.771667        -0.875086        -0.770471
 H        -0.794106         3.143971         0.753790
 H        -2.213685         2.171198         1.385910
