19
Iteration:  1782charge 0 multiplicity 1
 O         0.300559         0.482568         0.768859
 C        -0.760633         1.026942         0.124713
 C        -0.706145         1.555932        -1.292543
 C        -1.933261         2.362766        -0.900076
 C        -3.054085         2.652005        -1.893237
 O        -3.328468         1.231050        -2.076554
 C        -2.910313         1.148019        -0.639873
 C        -1.997582         0.098738        -0.008418
 C        -1.233664         2.509822         0.523162
 H         0.275454        -0.449574         0.657080
 H         0.177452         2.155748        -1.551112
 H        -0.853682         0.751220        -1.985378
 H        -3.832206         3.275926        -1.380953
 H        -2.718581         3.201567        -2.784756
 H        -3.894709         1.421414         0.001211
 H        -2.425907        -0.250167         0.862169
 H        -1.667124        -0.814887        -0.539073
 H        -0.248877         3.194509         0.508934
 H        -1.827458         2.445654         1.389690
