19
Iteration:  3849
 O         0.423820         0.513618         0.749598
 C        -0.749026         1.079242         0.192417
 C        -0.705449         1.533532        -1.258453
 C        -1.974573         2.242521        -0.879681
 C        -2.887748         2.608460        -2.041140
 O        -3.493973         1.302702        -2.037080
 C        -2.947914         1.103563        -0.658778
 C        -1.988777         0.077789        -0.010053
 C        -1.328140         2.560097         0.590884
 H         0.443861        -0.486324         0.905506
 H         0.146206         2.291256        -1.575486
 H        -0.824728         0.913634        -2.175143
 H        -3.618716         3.364022        -1.836816
 H        -2.318962         2.756048        -3.031907
 H        -3.833433         1.378391        -0.047145
 H        -2.341349        -0.361616         1.027268
 H        -1.606510        -0.856929        -0.650080
 H        -0.534109         3.311850         0.569425
 H        -2.024856         2.766582         1.415516
