19
Iteration:  4841
 O         0.327549         0.510984         0.843742
 C        -0.729452         1.037095         0.113952
 C        -0.694083         1.688295        -1.327479
 C        -2.002905         2.199481        -0.826244
 C        -2.918597         2.728743        -1.917987
 O        -3.398740         1.319773        -2.181595
 C        -2.950397         1.026946        -0.668488
 C        -1.921363        -0.026477        -0.034235
 C        -1.378280         2.409034         0.607068
 H         1.054951         1.093769         0.964149
 H        -0.004188         2.563181        -1.414933
 H        -0.609796         0.837140        -2.032953
 H        -3.846589         3.346827        -1.618039
 H        -2.373884         3.282929        -2.680106
 H        -3.990432         1.109742        -0.391886
 H        -2.210794        -0.411197         0.846023
 H        -1.719769        -0.862970        -0.661754
 H        -0.571582         3.112228         0.742073
 H        -2.063755         2.469231         1.512387
