19
Iteration:  4679
 O         0.370422         0.501412         0.857650
 C        -0.703921         1.012886         0.101750
 C        -0.706169         1.577493        -1.301692
 C        -2.012216         2.251638        -0.766610
 C        -2.956549         2.710725        -1.979389
 O        -3.407460         1.361483        -2.153951
 C        -2.955315         1.077429        -0.674730
 C        -1.877898         0.041468        -0.111417
 C        -1.423464         2.380221         0.640061
 H         0.955539         1.337329         0.847203
 H        -0.008498         2.352246        -1.332781
 H        -0.587591         0.838820        -2.079540
 H        -3.842430         3.306789        -1.855517
 H        -2.374720         3.073295        -2.811170
 H        -3.846484         1.050380        -0.020577
 H        -2.215060        -0.470971         0.771695
 H        -1.603289        -0.842983        -0.830479
 H        -0.733224         3.124887         0.886802
 H        -2.140160         2.395099         1.489908
