19
Iteration:  4301charge 0 multiplicity 1
 O         0.292384         0.504458         0.883446
 C        -0.690833         1.013288         0.142902
 C        -0.611712         1.556555        -1.359681
 C        -1.983385         2.320540        -0.892884
 C        -3.109433         2.743172        -1.870293
 O        -3.296160         1.275577        -2.128025
 C        -2.884000         1.119029        -0.633717
 C        -2.034831        -0.038384        -0.142692
 C        -1.352833         2.432602         0.590820
 H         1.067933         1.107472         0.830097
 H         0.181292         2.206722        -1.506937
 H        -0.844166         0.775111        -2.087734
 H        -4.003557         3.330403        -1.429460
 H        -2.734322         3.208721        -2.744326
 H        -3.781967         1.298005        -0.111698
 H        -2.252311        -0.493753         0.821459
 H        -1.699392        -0.849741        -0.858450
 H        -0.550574         3.172867         0.752377
 H        -1.931523         2.592993         1.455246
