19
Iteration:  4702charge 0 multiplicity 1
 O         0.424966         0.622345         0.795829
 C        -0.726215         0.982179         0.194274
 C        -0.685243         1.623905        -1.273135
 C        -1.945570         2.234958        -0.839277
 C        -2.882033         2.781984        -1.949521
 O        -3.383341         1.299622        -2.083641
 C        -2.912914         1.076696        -0.695232
 C        -2.067698        -0.046323        -0.137854
 C        -1.486118         2.298240         0.588486
 H         0.825290         1.487850         0.956932
 H         0.097336         2.274291        -1.384450
 H        -0.836875         0.942132        -2.113131
 H        -3.660284         3.404549        -1.551701
 H        -2.471674         3.234120        -2.838397
 H        -3.715383         1.144744         0.079394
 H        -2.589683        -0.548354         0.650556
 H        -1.624103        -0.920425        -0.788004
 H        -0.726326         2.985022         0.705772
 H        -2.105633         2.417532         1.454890
