19
Iteration:   235
 O         0.323282         0.637816         0.867900
 C        -0.774251         0.942092         0.005265
 C        -0.631583         1.788013        -1.247805
 C        -1.973251         2.279598        -0.814859
 C        -3.022680         2.730575        -1.900020
 O        -3.378866         1.314425        -2.007519
 C        -2.854676         1.064581        -0.709315
 C        -1.901843        -0.031903        -0.293109
 C        -1.447539         2.253997         0.628020
 H         0.326935        -0.261207         1.130867
 H         0.209829         2.602693        -1.148679
 H        -0.231749         1.372557        -2.268314
 H        -3.874426         3.257096        -1.434547
 H        -2.737830         3.192052        -2.901120
 H        -3.631875         1.223283         0.090649
 H        -2.320549        -0.526303         0.604913
 H        -1.621286        -0.772001        -1.020368
 H        -0.570005         2.986897         0.781469
 H        -2.004571         1.968389         1.601019
