19
Iteration:  4186
 O         0.346641         0.453011         0.898019
 C        -0.771134         1.009667         0.150942
 C        -0.626478         1.571167        -1.350886
 C        -1.965488         2.227774        -0.937001
 C        -3.037380         2.748613        -1.816752
 O        -3.378122         1.299589        -2.183949
 C        -2.893906         1.079758        -0.755328
 C        -1.927918         0.091064         0.047622
 C        -1.405508         2.428092         0.539255
 H         1.216188         0.529358         0.433162
 H         0.077883         2.422954        -1.494212
 H        -0.834189         0.853137        -2.106657
 H        -3.850633         3.159201        -1.299923
 H        -2.848477         3.488241        -2.659140
 H        -3.703217         1.306700        -0.105729
 H        -2.258214        -0.327563         1.001918
 H        -1.641047        -0.649873        -0.632436
 H        -0.688904         3.270989         0.606092
 H        -2.045484         2.619958         1.516766
