19
Iteration:  3461
 O         0.345963         0.352571         0.729359
 C        -0.748960         1.002318         0.167223
 C        -0.563198         1.666582        -1.244613
 C        -1.947325         2.315359        -0.997251
 C        -3.037571         2.685087        -1.939923
 O        -3.335544         1.196136        -1.969115
 C        -2.963042         1.158841        -0.681514
 C        -2.018444         0.085711        -0.077742
 C        -1.325299         2.501263         0.510364
 H         0.291469         0.720001         1.670501
 H         0.223053         2.506422        -1.257641
 H        -0.508342         1.082733        -2.161233
 H        -3.925534         3.082895        -1.241289
 H        -2.876137         3.057164        -2.992084
 H        -3.808809         1.330567        -0.058660
 H        -2.406186        -0.299728         0.936537
 H        -1.877203        -0.703094        -0.720400
 H        -0.574379         3.212745         0.722750
 H        -2.064796         2.833268         1.312256
