19
Iteration:  4047
 O         0.298321         0.553963         0.921903
 C        -0.788736         1.003523         0.142029
 C        -0.645888         1.598224        -1.408598
 C        -1.897171         2.329465        -0.963209
 C        -3.129066         2.660032        -1.910312
 O        -3.327528         1.240484        -2.004954
 C        -2.903995         1.174292        -0.666370
 C        -1.924448         0.052108        -0.134731
 C        -1.258229         2.418775         0.569821
 H         0.257819        -0.374702         1.060611
 H         0.126887         2.370526        -1.667158
 H        -0.849376         0.839843        -2.160263
 H        -4.065769         3.079265        -1.414473
 H        -2.999368         3.090008        -2.932816
 H        -3.733817         1.478234         0.106704
 H        -2.291406        -0.330573         0.876828
 H        -1.670762        -0.758410        -0.927061
 H        -0.522015         3.171120         0.554804
 H        -1.821002         2.486842         1.512048
