19
Iteration:   249
 O         0.345272         0.541590         0.847742
 C        -0.732455         1.003526         0.103913
 C        -0.574065         1.806091        -1.339734
 C        -1.994831         2.354732        -0.775838
 C        -3.035585         2.703529        -1.809698
 O        -3.318447         1.243716        -2.100999
 C        -2.904221         1.063353        -0.690411
 C        -1.941238        -0.066095        -0.280165
 C        -1.412614         2.373942         0.626707
 H         0.093704        -0.380151         1.148850
 H         0.176328         2.582892        -1.249473
 H        -0.893423         1.328777        -2.270393
 H        -3.936495         3.250312        -1.439853
 H        -2.708928         3.189758        -2.646599
 H        -3.776931         1.168175        -0.017766
 H        -2.160166        -0.795883         0.525743
 H        -1.713186        -0.670620        -1.198078
 H        -0.659289         3.092598         0.943973
 H        -2.314124         2.399732         1.458151
