19
Iteration:  4292charge 0 multiplicity 1
 O         0.283960         0.416752         0.871717
 C        -0.740107         1.034996         0.097340
 C        -0.527073         1.620875        -1.357343
 C        -1.990161         2.275506        -0.863381
 C        -3.085967         2.695867        -1.898964
 O        -3.312137         1.218777        -2.080537
 C        -2.908029         1.167178        -0.651770
 C        -2.008827         0.124201        -0.129298
 C        -1.370342         2.419015         0.591894
 H         1.054019         1.025592         0.957810
 H         0.317960         2.307153        -1.540848
 H        -0.518961         1.015311        -2.274540
 H        -3.930239         3.085977        -1.201849
 H        -2.913943         3.175072        -2.888342
 H        -3.705621         1.299950         0.122798
 H        -2.407209        -0.399292         0.834275
 H        -1.776404        -0.713673        -0.884542
 H        -0.635273         3.177729         0.617703
 H        -2.080759         2.394786         1.358374
