19
Iteration:    45
 O         0.205134         0.415401         0.850096
 C        -0.715464         1.042574         0.116062
 C        -0.562254         1.715792        -1.264694
 C        -1.953277         2.293472        -0.892934
 C        -3.062561         2.760087        -1.839252
 O        -3.493402         1.266252        -2.007162
 C        -2.806251         1.023443        -0.689470
 C        -1.836111        -0.008700        -0.201171
 C        -1.397193         2.412248         0.519582
 H         1.028107         0.959500         0.725768
 H         0.196224         2.515008        -1.236116
 H        -0.371360         1.143640        -2.176736
 H        -3.891155         3.296319        -1.359106
 H        -2.870736         3.216544        -2.841064
 H        -3.645233         1.134928        -0.033761
 H        -2.187570        -0.496286         0.698761
 H        -1.477485        -0.772865        -0.896808
 H        -0.654387         3.227739         0.608734
 H        -2.138134         2.588298         1.270511
