19
Iteration:  2269
 O         0.354265         0.354056         0.712641
 C        -0.781195         0.992906         0.194969
 C        -0.698947         1.573436        -1.345316
 C        -1.975634         2.396224        -0.870982
 C        -3.117163         2.706188        -1.916306
 O        -3.323953         1.192816        -2.021174
 C        -2.825606         1.180084        -0.629660
 C        -2.020202         0.076873        -0.002726
 C        -1.229050         2.571985         0.481954
 H         0.091245         0.067906         1.570003
 H         0.197570         2.228318        -1.537988
 H        -0.760170         0.807622        -2.150640
 H        -4.101171         3.185140        -1.758209
 H        -2.982821         3.089809        -2.918230
 H        -3.589560         1.508256         0.079702
 H        -2.534749        -0.254336         0.907608
 H        -1.675701        -0.808034        -0.682116
 H        -0.251106         2.941242         0.373445
 H        -1.712365         3.102659         1.328937
