19
Iteration:  1644
 O         0.439242         0.515250         0.797327
 C        -0.725211         1.010047         0.158069
 C        -0.683142         1.510295        -1.327657
 C        -1.916908         2.321484        -0.913404
 C        -3.024675         2.747542        -1.885425
 O        -3.345694         1.274207        -2.061346
 C        -2.923690         1.159949        -0.653668
 C        -2.067238         0.013908        -0.049387
 C        -1.345702         2.492416         0.485647
 H         0.191852        -0.309538         1.326350
 H         0.196713         2.154058        -1.490988
 H        -0.916096         0.703098        -2.052829
 H        -3.943478         3.229357        -1.538153
 H        -2.582324         3.242408        -2.758162
 H        -3.840731         1.381588         0.090967
 H        -2.481048        -0.465318         0.927066
 H        -1.952848        -0.866404        -0.736830
 H        -0.482052         3.092278         0.550382
 H        -2.050607         2.740783         1.353020
