19
Iteration:  4977charge 0 multiplicity 1
 O         0.302109         0.396044         0.856520
 C        -0.791374         1.025821         0.110897
 C        -0.629856         1.696963        -1.294410
 C        -1.996606         2.291142        -0.855365
 C        -3.053043         2.682792        -1.876647
 O        -3.325211         1.253920        -2.130385
 C        -2.881930         1.131885        -0.696422
 C        -1.951702         0.033468        -0.087570
 C        -1.368795         2.435180         0.534910
 H         1.141942         0.909489         0.930679
 H         0.093816         2.532961        -1.298432
 H        -0.534421         1.058998        -2.163240
 H        -3.945802         3.223089        -1.425572
 H        -2.632843         3.174803        -2.820403
 H        -3.772078         1.162826        -0.000085
 H        -2.237641        -0.326926         0.985790
 H        -1.622505        -0.732865        -0.786947
 H        -0.508702         3.106489         0.878139
 H        -2.148770         2.511833         1.274334
