19
Iteration:  1704charge 0 multiplicity 1
 O         0.425244         0.506282         0.836772
 C        -0.740596         0.951485         0.143484
 C        -0.653621         1.596168        -1.249220
 C        -1.872828         2.336403        -0.941120
 C        -2.923388         2.631808        -2.095532
 O        -3.550751         1.322312        -1.885035
 C        -2.921256         1.127937        -0.578803
 C        -2.000055         0.023794        -0.144012
 C        -1.378039         2.491824         0.515782
 H         0.116411        -0.392759         0.889076
 H         0.206599         2.295849        -1.291189
 H        -0.576891         1.094129        -2.223801
 H        -3.677545         3.406486        -1.840478
 H        -2.390058         2.848080        -3.027597
 H        -3.748766         1.407834         0.181571
 H        -2.327818        -0.520547         0.635858
 H        -1.817662        -0.520771        -1.059862
 H        -0.450178         3.280777         0.536138
 H        -2.062458         2.528600         1.395745
