19
Iteration:    54
 O         0.180391         0.513935         0.868228
 C        -0.768918         1.040164         0.022914
 C        -0.553428         1.723696        -1.317156
 C        -1.965258         2.264601        -0.866243
 C        -3.006579         2.769240        -1.829148
 O        -3.483553         1.214413        -1.975441
 C        -2.828047         1.068936        -0.746462
 C        -1.834064         0.028168        -0.211784
 C        -1.396384         2.350243         0.578546
 H         1.106694         0.701001         0.629634
 H         0.234727         2.477328        -1.363339
 H        -0.512643         1.032082        -2.148440
 H        -3.820044         3.368077        -1.314911
 H        -2.588221         3.124166        -2.756211
 H        -3.495583         1.168371         0.123148
 H        -2.280735        -0.314270         0.745566
 H        -1.478765        -0.817432        -0.829058
 H        -0.690911         3.038839         0.826310
 H        -2.016647         2.220379         1.455781
