19
Iteration:    27charge 0 multiplicity 1
 O         0.466485         0.286156         0.866991
 C        -0.742945         1.004788         0.179826
 C        -0.579958         1.702289        -1.239614
 C        -1.994501         2.246132        -0.900503
 C        -3.152627         2.691172        -1.867689
 O        -3.462073         1.317272        -2.084326
 C        -2.927808         1.095989        -0.708882
 C        -1.865100        -0.012461        -0.210662
 C        -1.463170         2.615560         0.487891
 H         0.942114         0.881857         1.520919
 H         0.253226         2.403640        -1.420025
 H        -0.451620         0.971540        -2.099151
 H        -3.864203         3.186858        -1.209965
 H        -2.826250         3.154843        -2.831678
 H        -3.668347         1.262782         0.138605
 H        -2.267507        -0.699000         0.518881
 H        -1.444755        -0.511259        -1.089027
 H        -0.641746         3.428047         0.794500
 H        -2.005438         2.729348         1.486228
