19
Iteration:   241
 O         0.330369         0.597834         0.870155
 C        -0.793578         0.978928         0.020340
 C        -0.560070         1.799817        -1.296601
 C        -1.987845         2.307334        -0.800690
 C        -3.017275         2.722304        -1.881743
 O        -3.350286         1.282494        -2.024843
 C        -2.869564         1.054528        -0.690953
 C        -1.920338        -0.071108        -0.287195
 C        -1.439757         2.317088         0.633638
 H         0.321116        -0.299817         1.223480
 H         0.125394         2.561650        -1.096579
 H        -0.736939         1.499325        -2.332392
 H        -3.868177         3.186940        -1.359028
 H        -2.746786         3.241073        -2.820886
 H        -3.729752         1.292542        -0.050992
 H        -2.261249        -0.599946         0.602867
 H        -1.714150        -0.719389        -1.183095
 H        -0.654264         2.984885         0.848804
 H        -1.964151         2.061316         1.501878
