19
Iteration:  2414
 O         0.450003         0.462979         0.751196
 C        -0.732707         0.998895         0.097403
 C        -0.655791         1.482647        -1.339058
 C        -1.916269         2.282786        -0.920572
 C        -3.006863         2.696583        -1.994037
 O        -3.438262         1.257396        -2.001633
 C        -2.988665         1.225766        -0.516414
 C        -2.004125         0.117066        -0.027382
 C        -1.282496         2.495899         0.538099
 H         0.162904        -0.182236         1.494751
 H         0.117453         2.218464        -1.588639
 H        -0.724560         0.777002        -2.145280
 H        -3.807599         3.497926        -1.677392
 H        -2.804277         2.966519        -3.030038
 H        -3.846504         1.504677         0.061492
 H        -2.473068        -0.354214         0.907122
 H        -2.021423        -0.745325        -0.790885
 H        -0.355006         3.214934         0.580963
 H        -1.997408         2.576827         1.358753
