19
Iteration:  3680
 O         0.305819         0.329053         0.778535
 C        -0.718429         1.053097         0.141699
 C        -0.712176         1.490886        -1.275104
 C        -2.026550         2.315127        -0.832606
 C        -3.050282         2.641333        -1.952238
 O        -3.313163         1.272360        -2.109890
 C        -2.898856         1.155682        -0.603238
 C        -1.972441         0.116880         0.033631
 C        -1.287732         2.594941         0.420497
 H         0.907408         0.792024         1.389123
 H         0.193684         2.054685        -1.515442
 H        -0.869636         0.815001        -2.138749
 H        -3.834190         3.241145        -1.632083
 H        -2.503639         3.154170        -2.713729
 H        -3.793786         1.501396         0.093095
 H        -2.444970        -0.392676         1.073967
 H        -1.654100        -0.791284        -0.506263
 H        -0.486064         3.216764         0.067781
 H        -2.013343         2.957757         1.210305
