19
Iteration:  3810charge 0 multiplicity 1
 O         0.245926         0.534281         0.852160
 C        -0.786858         0.972197         0.087399
 C        -0.617565         1.573404        -1.456541
 C        -1.876445         2.351667        -0.901033
 C        -3.142365         2.644892        -1.965178
 O        -3.303416         1.207246        -2.027285
 C        -2.852059         1.170616        -0.644244
 C        -1.995897         0.126022         0.012492
 C        -1.242700         2.462940         0.548154
 H         0.054121        -0.376300         0.990321
 H         0.245298         2.173837        -1.569749
 H        -0.738113         0.818629        -2.204060
 H        -3.992464         3.083951        -1.315284
 H        -2.957891         3.119997        -2.901078
 H        -3.634498         1.405771         0.064450
 H        -2.398142         0.011953         0.998713
 H        -1.806400        -0.770617        -0.457696
 H        -0.435601         3.171796         0.745354
 H        -1.857085         2.474801         1.495155
