19
Iteration:  3507charge 0 multiplicity 1
 O         0.484620         0.549475         0.722264
 C        -0.750069         0.996657         0.125162
 C        -0.783067         1.563876        -1.271865
 C        -2.076738         2.222661        -0.794015
 C        -2.788925         2.730180        -2.022189
 O        -3.432150         1.262543        -2.061472
 C        -3.008605         1.139854        -0.619769
 C        -1.979610         0.074987        -0.013133
 C        -1.373330         2.496124         0.517657
 H         0.371865        -0.353632         1.181347
 H         0.047342         2.313644        -1.375143
 H        -0.694078         0.726537        -2.064312
 H        -3.618882         3.497797        -1.767772
 H        -2.089166         2.877265        -2.940811
 H        -3.860010         1.103304        -0.051004
 H        -2.373752        -0.191073         0.959037
 H        -1.722771        -0.798045        -0.543076
 H        -0.485237         3.091559         0.708658
 H        -1.904737         2.649845         1.474364
