19
Iteration:  4677
 O         0.349258         0.491521         0.849173
 C        -0.682099         1.004228         0.123374
 C        -0.704263         1.588065        -1.291200
 C        -2.025216         2.258154        -0.785082
 C        -2.967355         2.700377        -2.004476
 O        -3.400136         1.365708        -2.149220
 C        -2.948412         1.068516        -0.660611
 C        -1.875101         0.053084        -0.115621
 C        -1.429283         2.368492         0.626876
 H         0.981760         1.281632         0.857512
 H         0.020145         2.460169        -1.379940
 H        -0.616152         0.865891        -2.117644
 H        -3.844705         3.332241        -1.743422
 H        -2.352639         3.119741        -2.811913
 H        -3.802922         1.007789         0.011417
 H        -2.231465        -0.504772         0.777594
 H        -1.577285        -0.819404        -0.743637
 H        -0.683026         3.184704         0.899508
 H        -2.115235         2.457223         1.550851
