19
Iteration:  1961
 O         0.427740         0.540676         0.716245
 C        -0.743081         1.044520         0.216289
 C        -0.729324         1.416435        -1.332817
 C        -1.922298         2.269330        -0.887599
 C        -2.822137         2.674668        -2.041327
 O        -3.483651         1.298846        -1.981274
 C        -3.015794         1.153537        -0.551140
 C        -2.071647         0.103190        -0.011294
 C        -1.340361         2.447645         0.542449
 H         1.119609         0.557284         0.027882
 H         0.020936         2.144159        -1.449863
 H        -0.758746         0.694285        -2.134430
 H        -3.478706         3.572279        -1.855554
 H        -2.254315         2.696628        -3.016225
 H        -3.822106         1.423612         0.141866
 H        -2.453503        -0.261726         0.964758
 H        -1.788965        -0.558773        -0.768284
 H        -0.561228         3.180696         0.748858
 H        -2.010738         2.402694         1.593299
