19
Iteration:  1788
 O         0.268400         0.469740         0.735246
 C        -0.784818         1.089411         0.117166
 C        -0.658848         1.535798        -1.298674
 C        -1.927372         2.327684        -0.878076
 C        -2.976655         2.643855        -1.900020
 O        -3.354936         1.200758        -2.058190
 C        -2.939063         1.175249        -0.625473
 C        -1.989318         0.143466        -0.005798
 C        -1.222859         2.501363         0.554296
 H         0.458941        -0.482742         0.604316
 H         0.075963         2.348671        -1.514320
 H        -0.851279         0.782869        -2.127064
 H        -3.938149         3.089911        -1.571734
 H        -2.762498         3.210206        -2.821042
 H        -3.739887         1.436102        -0.046614
 H        -2.345794        -0.572536         0.909970
 H        -1.853375        -0.714367        -0.713345
 H        -0.429604         3.146336         0.597713
 H        -1.852237         2.625441         1.509849
