19
Iteration:  3503charge 0 multiplicity 1
 O         0.455981         0.523988         0.710932
 C        -0.756568         1.041133         0.110818
 C        -0.780937         1.554822        -1.277430
 C        -2.017578         2.242131        -0.807933
 C        -2.823952         2.734908        -2.058929
 O        -3.398796         1.261085        -2.045933
 C        -3.008122         1.105490        -0.604584
 C        -1.980574         0.111884        -0.023010
 C        -1.361258         2.455257         0.558555
 H         0.376990        -0.244778         1.261406
 H        -0.052762         2.359935        -1.471237
 H        -0.638786         0.832478        -2.013106
 H        -3.629111         3.500367        -1.863878
 H        -2.303325         2.853122        -2.992623
 H        -3.931809         1.180629         0.076563
 H        -2.357045        -0.247401         1.060825
 H        -1.743989        -0.845025        -0.529902
 H        -0.524966         3.079596         0.807356
 H        -1.973095         2.622336         1.469365
