19
Iteration:  3479charge 0 multiplicity 1
 O         0.358307         0.424840         0.691909
 C        -0.783199         1.017154         0.079355
 C        -0.630218         1.658346        -1.303712
 C        -1.935152         2.376720        -0.840547
 C        -3.032623         2.611498        -2.010973
 O        -3.366262         1.175862        -2.038515
 C        -2.838127         1.250636        -0.641329
 C        -2.026411         0.109766         0.011311
 C        -1.369326         2.437833         0.583624
 H         0.262645         0.248690         1.687281
 H         0.350218         2.071650        -1.367002
 H        -0.672242         0.977676        -2.147447
 H        -3.877684         3.187713        -1.729930
 H        -2.600598         2.968439        -2.911627
 H        -3.753000         1.546838         0.044524
 H        -2.502406        -0.352554         0.935646
 H        -1.785102        -0.828946        -0.680287
 H        -0.571550         3.214869         0.894593
 H        -1.951809         2.405660         1.498669
