19
Iteration:  3447
 O         0.319828         0.380372         0.792739
 C        -0.748855         1.067391         0.134227
 C        -0.562808         1.616027        -1.305199
 C        -1.950782         2.248661        -0.854596
 C        -3.043664         2.670404        -1.911180
 O        -3.421912         1.295639        -2.107592
 C        -2.903724         1.073433        -0.601111
 C        -1.990692         0.061322        -0.055802
 C        -1.347042         2.538616         0.465824
 H         0.558611         0.696194         1.677835
 H         0.184721         2.386474        -1.247189
 H        -0.408001         0.882696        -2.062944
 H        -3.852927         3.331046        -1.457418
 H        -2.760171         3.172474        -2.819054
 H        -3.679361         1.462227         0.060947
 H        -2.363371        -0.510137         0.867642
 H        -1.575111        -0.691786        -0.836994
 H        -0.524022         3.247759         0.293932
 H        -1.991981         2.485283         1.309966
