19
Iteration:  3286
 O         0.512881         0.559195         0.783404
 C        -0.698688         1.069237         0.169245
 C        -0.658404         1.487534        -1.315650
 C        -1.950745         2.179120        -0.848862
 C        -2.887072         2.778617        -1.912539
 O        -3.468706         1.369219        -2.074182
 C        -2.977876         1.117218        -0.705196
 C        -2.086055        -0.030175        -0.048105
 C        -1.492301         2.339205         0.554205
 H         1.091902         1.389682         0.946212
 H         0.232586         2.243269        -1.477941
 H        -0.693950         0.630527        -2.049124
 H        -3.545644         3.501163        -1.680007
 H        -2.307864         3.226283        -2.744867
 H        -3.842178         1.404429         0.028576
 H        -2.506914        -0.497214         0.885959
 H        -1.731550        -0.771815        -0.668566
 H        -0.772212         3.204630         0.500765
 H        -2.231584         2.117849         1.414131
