19
Iteration:    49charge 0 multiplicity 1
 O         0.175639         0.468460         0.850086
 C        -0.738220         1.041133         0.068995
 C        -0.562246         1.721690        -1.274194
 C        -1.958236         2.272596        -0.878816
 C        -3.038046         2.780893        -1.830396
 O        -3.493496         1.230770        -1.990398
 C        -2.800307         1.050609        -0.716745
 C        -1.827235         0.007616        -0.206260
 C        -1.393205         2.361381         0.530385
 H         1.048437         0.819690         0.665944
 H         0.244204         2.477110        -1.343777
 H        -0.378271         1.099579        -2.190106
 H        -3.830131         3.302883        -1.319788
 H        -2.712021         3.162892        -2.825937
 H        -3.615173         1.094762         0.076138
 H        -2.277497        -0.354744         0.723239
 H        -1.473245        -0.790919        -0.859383
 H        -0.650537         3.255600         0.794700
 H        -2.083890         2.502704         1.430439
