19
Iteration:  4479charge 0 multiplicity 1
 O         0.413820         0.476555         0.803890
 C        -0.769195         0.995784         0.189476
 C        -0.611546         1.641320        -1.256565
 C        -2.017367         2.349541        -0.840505
 C        -2.901911         2.683489        -1.973820
 O        -3.424959         1.307306        -2.103036
 C        -2.925001         1.093745        -0.648911
 C        -1.952659        -0.015873        -0.171484
 C        -1.463824         2.400146         0.645134
 H         0.955993         1.209756         1.039115
 H         0.107234         2.453990        -1.564953
 H        -0.685669         0.974672        -2.087789
 H        -3.815554         3.251995        -1.758353
 H        -2.588198         2.936713        -3.014295
 H        -3.895418         1.214293        -0.033408
 H        -2.405135        -0.529325         0.805985
 H        -1.686053        -0.798796        -0.914554
 H        -0.536056         3.039334         0.758082
 H        -2.186981         2.519350         1.459607
