19
Iteration:  1616
 O         0.429373         0.598944         0.684280
 C        -0.750909         1.013232         0.154254
 C        -0.733206         1.479453        -1.290075
 C        -1.946511         2.238432        -0.876439
 C        -2.926878         2.717341        -1.922021
 O        -3.374017         1.385019        -2.095551
 C        -2.999959         1.120872        -0.696783
 C        -2.043547         0.000307         0.018853
 C        -1.307857         2.382956         0.606085
 H         0.393794         0.452075         1.623305
 H         0.087108         2.221236        -1.429075
 H        -0.771972         0.751972        -2.128927
 H        -3.833645         3.308533        -1.659811
 H        -2.327780         3.051790        -2.777269
 H        -3.810925         1.261504        -0.088040
 H        -2.437319        -0.192198         0.999619
 H        -1.855118        -0.961431        -0.453338
 H        -0.362905         3.005354         0.411360
 H        -2.069897         2.527173         1.369085
