19
Iteration:  4962charge 0 multiplicity 1
 O         0.324933         0.537017         0.837648
 C        -0.705085         0.960712         0.112378
 C        -0.632222         1.618670        -1.317064
 C        -1.961430         2.289847        -0.858575
 C        -2.915674         2.736189        -1.904701
 O        -3.326716         1.309824        -2.071018
 C        -2.963671         1.038018        -0.673860
 C        -2.007226        -0.051040        -0.098909
 C        -1.464202         2.431634         0.595843
 H         0.982785         1.296651         0.693370
 H         0.233330         2.329282        -1.309652
 H        -0.658733         0.993418        -2.266022
 H        -3.845105         3.318883        -1.507801
 H        -2.685520         3.199291        -2.865467
 H        -3.780357         1.422901         0.021551
 H        -2.369566        -0.604710         0.651234
 H        -1.806845        -0.800977        -0.882954
 H        -0.784190         3.263389         0.610849
 H        -2.074753         2.333208         1.551414
