19
Iteration:  4552charge 0 multiplicity 1
 O         0.381862         0.523037         0.793388
 C        -0.785070         1.057446         0.169425
 C        -0.622723         1.586245        -1.244560
 C        -1.943154         2.248744        -0.863440
 C        -3.017343         2.711519        -1.918827
 O        -3.357974         1.331573        -2.116060
 C        -2.937865         1.126487        -0.752863
 C        -1.953412        -0.074305        -0.129989
 C        -1.428158         2.394091         0.679173
 H         0.959086         1.288868         0.835714
 H         0.227109         2.267430        -1.487408
 H        -0.755910         0.799237        -2.059410
 H        -3.944226         3.229470        -1.556094
 H        -2.614068         3.124111        -2.823715
 H        -3.713043         1.277136        -0.042644
 H        -2.480764        -0.384452         0.724142
 H        -1.530930        -0.902716        -0.608282
 H        -0.585465         3.153966         0.827026
 H        -2.302868         2.462786         1.306033
