19
Iteration:  1657charge 0 multiplicity 1
 O         0.389341         0.424310         0.844912
 C        -0.777075         0.963333         0.141094
 C        -0.681934         1.611877        -1.372706
 C        -1.960475         2.299769        -0.873419
 C        -3.017868         2.680863        -1.980055
 O        -3.392062         1.306881        -1.990246
 C        -2.859755         1.129376        -0.655955
 C        -1.980581         0.052553        -0.050009
 C        -1.308101         2.533485         0.509856
 H         0.091966        -0.412320         1.234013
 H         0.160660         2.330238        -1.588917
 H        -0.645853         0.971721        -2.347152
 H        -3.750517         3.343860        -1.462975
 H        -2.857095         2.948519        -3.039910
 H        -3.724987         1.561796         0.082437
 H        -2.435361        -0.166862         0.924768
 H        -1.666680        -0.775025        -0.663481
 H        -0.497840         3.261610         0.496913
 H        -2.207652         2.577593         1.287635
