19
Iteration:  3638charge 0 multiplicity 1
 O         0.375869         0.554862         0.734715
 C        -0.797121         0.951072         0.120866
 C        -0.656307         1.525668        -1.343026
 C        -1.930408         2.286004        -0.862412
 C        -2.878632         2.639473        -2.006725
 O        -3.483673         1.323923        -2.024607
 C        -2.846896         1.168248        -0.627582
 C        -2.061841         0.090761         0.089307
 C        -1.359705         2.336651         0.528517
 H         0.608158         1.443518         1.159476
 H         0.186366         2.161555        -1.507324
 H        -0.595193         0.872210        -2.252949
 H        -3.693322         3.351891        -2.017953
 H        -2.342681         2.819009        -2.995946
 H        -3.712198         1.497135         0.055412
 H        -2.453089        -0.076078         1.106816
 H        -2.155669        -0.867533        -0.430914
 H        -0.471883         2.977172         0.505159
 H        -1.889782         2.377048         1.449603
