19
Iteration:  4001charge 0 multiplicity 1
 O         0.427944         0.474312         0.733648
 C        -0.743128         1.076549         0.188761
 C        -0.701159         1.538551        -1.228491
 C        -1.990624         2.251210        -0.828865
 C        -2.832532         2.647367        -2.047554
 O        -3.464301         1.299075        -2.032790
 C        -2.960220         1.103300        -0.618478
 C        -1.956417         0.080195        -0.031954
 C        -1.463355         2.434105         0.523983
 H         1.090247         0.914723         0.147577
 H         0.120516         2.293447        -1.343118
 H        -0.728514         0.752868        -1.928870
 H        -3.628648         3.507023        -1.750888
 H        -2.373616         2.950348        -3.075884
 H        -3.814342         1.395567         0.201619
 H        -2.446448        -0.118954         0.956654
 H        -1.598589        -0.796158        -0.674125
 H        -0.707462         3.200106         0.611249
 H        -2.178018         2.540380         1.377407
