19
Iteration:   393
 O         0.375568         0.433648         0.846114
 C        -0.767019         1.085905         0.145935
 C        -0.558664         1.735031        -1.275825
 C        -1.927431         2.387786        -0.892871
 C        -3.130463         2.710431        -1.806724
 O        -3.403923         1.255747        -2.068100
 C        -2.814060         1.091993        -0.794425
 C        -1.868258         0.034341        -0.222554
 C        -1.480271         2.350767         0.592753
 H         0.086792        -0.392551         1.153639
 H         0.264879         2.375862        -1.248283
 H        -0.593571         1.241064        -2.218241
 H        -3.992713         3.143915        -1.283929
 H        -2.874103         3.261225        -2.663375
 H        -3.658678         1.276560        -0.104824
 H        -2.323342        -0.510413         0.615506
 H        -1.556134        -0.812120        -0.901901
 H        -0.667631         2.966609         1.037950
 H        -2.284131         2.264922         1.426013
