19
Iteration:   886
 O         0.392374         0.472244         0.865676
 C        -0.718251         0.995833         0.141532
 C        -0.619656         1.576746        -1.245887
 C        -1.967331         2.250894        -0.944910
 C        -2.969704         2.665862        -1.915314
 O        -3.497225         1.350849        -1.995642
 C        -2.921450         1.119436        -0.651488
 C        -1.934465         0.088793        -0.150009
 C        -1.414934         2.399566         0.520832
 H         1.222309         0.785682         0.392411
 H         0.000493         2.450544        -1.380572
 H        -0.746643         0.831909        -2.072708
 H        -3.722159         3.519427        -1.591135
 H        -2.492673         2.945312        -2.855012
 H        -3.765371         1.300057        -0.109486
 H        -2.353430        -0.385137         0.738954
 H        -1.787992        -0.771366        -0.750445
 H        -0.558038         3.122244         0.598190
 H        -2.185332         2.458552         1.280783
