19
Iteration:  3194charge 0 multiplicity 1
 O         0.328766         0.342845         0.795846
 C        -0.760150         0.982529         0.162651
 C        -0.677115         1.646064        -1.320619
 C        -1.970162         2.325283        -0.922671
 C        -2.944650         2.718715        -2.007491
 O        -3.450528         1.259883        -2.006723
 C        -2.886609         1.152089        -0.690223
 C        -1.959531         0.023378        -0.022928
 C        -1.367271         2.476213         0.567578
 H         1.051037         0.941164         0.877500
 H         0.049812         2.434699        -1.199898
 H        -0.534234         1.006804        -2.214742
 H        -3.831554         3.284798        -1.755229
 H        -2.633441         3.165314        -2.893577
 H        -3.637328         1.530334         0.127295
 H        -2.429490        -0.241609         0.892649
 H        -1.454629        -0.920786        -0.428842
 H        -0.468799         3.205310         0.565492
 H        -1.997070         2.642520         1.427147
