19
Iteration:  1971
 O         0.509918         0.552042         0.827878
 C        -0.781985         0.987054         0.095431
 C        -0.741460         1.493887        -1.309148
 C        -1.985787         2.223151        -0.861315
 C        -2.842647         2.653656        -2.046600
 O        -3.479927         1.344217        -1.962349
 C        -2.981162         1.180189        -0.599390
 C        -2.076469         0.108319         0.002084
 C        -1.304505         2.416810         0.526059
 H         1.038995         0.238075         0.026107
 H         0.052418         2.132350        -1.615462
 H        -0.884418         0.730510        -2.067900
 H        -3.668206         3.402735        -1.949314
 H        -2.247550         2.974015        -2.959229
 H        -3.713215         1.508302         0.087449
 H        -2.420462        -0.421792         0.909330
 H        -1.933599        -0.757689        -0.576495
 H        -0.552895         3.192423         0.482443
 H        -2.195734         2.502836         1.361573
