19
Iteration:  4496
 O         0.231486         0.340728         0.814945
 C        -0.744504         1.098439         0.107382
 C        -0.705654         1.715602        -1.232261
 C        -2.033474         2.278795        -0.827983
 C        -3.012240         2.698807        -2.035271
 O        -3.368425         1.264008        -2.053617
 C        -2.892207         1.078149        -0.696791
 C        -1.826232         0.058067        -0.079163
 C        -1.355054         2.427862         0.614751
 H         0.970008         0.925123         0.963419
 H         0.125424         2.411424        -1.295663
 H        -0.593527         1.086020        -2.189021
 H        -3.822859         3.440004        -1.871451
 H        -2.392392         3.027864        -2.860096
 H        -3.663424         1.048706         0.035528
 H        -2.147248        -0.487016         0.708855
 H        -1.428745        -0.542359        -0.877967
 H        -0.670503         3.322163         0.695962
 H        -1.975298         2.409981         1.524111
