19
Iteration:  1315
 O         0.363064         0.402578         0.689099
 C        -0.791120         0.991499         0.103524
 C        -0.565112         1.754597        -1.276603
 C        -1.953650         2.341425        -0.840459
 C        -3.084919         2.615361        -1.997970
 O        -3.304539         1.229766        -2.008334
 C        -2.877235         1.207072        -0.690189
 C        -1.986183         0.068691        -0.050542
 C        -1.399904         2.407322         0.612643
 H        -0.003521         0.016320         1.479934
 H         0.194101         2.580916        -1.109093
 H        -0.469871         1.094933        -2.168888
 H        -3.890089         3.076899        -1.428121
 H        -2.759272         3.030237        -2.973245
 H        -3.763368         1.377191         0.108017
 H        -2.391638        -0.421291         0.760535
 H        -1.785552        -0.671166        -0.784687
 H        -0.651762         3.247398         0.610300
 H        -2.122645         2.511833         1.501667
