19
Iteration:  1643
 O         0.435792         0.520951         0.792834
 C        -0.722261         1.014469         0.151822
 C        -0.681029         1.500375        -1.319994
 C        -1.927990         2.319471        -0.917813
 C        -3.016914         2.753899        -1.879930
 O        -3.345612         1.273000        -2.066128
 C        -2.926950         1.160162        -0.651192
 C        -2.070437         0.017695        -0.045343
 C        -1.345387         2.493979         0.495353
 H         0.232822        -0.269745         1.324726
 H         0.206233         2.109265        -1.492370
 H        -0.903251         0.720491        -2.033718
 H        -3.941618         3.203448        -1.521815
 H        -2.578475         3.241517        -2.759922
 H        -3.833574         1.364301         0.061381
 H        -2.503965        -0.473245         0.944185
 H        -1.938893        -0.854967        -0.771823
 H        -0.441920         3.052371         0.507316
 H        -2.052063         2.684998         1.336904
