19
Iteration:  2573charge 0 multiplicity 1
 O         0.508754         0.581229         0.656125
 C        -0.765963         0.969108         0.111140
 C        -0.602963         1.494396        -1.316271
 C        -1.933443         2.180197        -0.828817
 C        -2.812172         2.611031        -1.959431
 O        -3.540800         1.343942        -1.942886
 C        -3.036941         1.193751        -0.566105
 C        -2.088820         0.069073        -0.070520
 C        -1.390103         2.439410         0.492491
 H         0.384587         0.420706         1.654386
 H         0.145284         2.267902        -1.200545
 H        -0.457800         0.880951        -2.194164
 H        -3.434009         3.538872        -1.864816
 H        -2.394597         2.799726        -2.990643
 H        -3.753296         1.621124         0.066706
 H        -2.428463        -0.330581         0.832928
 H        -1.778120        -0.708311        -0.816445
 H        -0.632765         3.239626         0.650057
 H        -2.187073         2.577104         1.318652
