19
Iteration:  1164charge 0 multiplicity 1
 O         0.380532         0.479588         0.674809
 C        -0.765390         0.989958         0.117646
 C        -0.625824         1.668059        -1.225243
 C        -1.977440         2.333681        -0.862607
 C        -2.948461         2.595987        -1.999287
 O        -3.419779         1.265846        -2.032277
 C        -2.872402         1.187869        -0.610716
 C        -2.021504         0.014856        -0.103063
 C        -1.373505         2.456523         0.635076
 H         0.193683        -0.030663         1.434932
 H         0.203554         2.380774        -1.319092
 H        -0.446873         1.058729        -2.097157
 H        -3.743833         3.348905        -1.908108
 H        -2.436590         2.937560        -2.928145
 H        -3.720508         1.451506         0.217354
 H        -2.497442        -0.431546         0.878246
 H        -1.794871        -0.727136        -0.867764
 H        -0.643145         3.241131         0.631517
 H        -2.082611         2.475618         1.472385
