19
Iteration:   657
 O         0.382343         0.575921         0.765941
 C        -0.759307         0.964881         0.111739
 C        -0.617239         1.621007        -1.272674
 C        -1.978476         2.297899        -0.812247
 C        -2.986629         2.672842        -1.964432
 O        -3.328447         1.291352        -2.032959
 C        -2.950774         1.128323        -0.633591
 C        -2.009021         0.061080        -0.163030
 C        -1.429387         2.360968         0.681818
 H         1.015919         0.383629         0.041283
 H         0.293956         2.238546        -1.163920
 H        -0.754712         0.919207        -2.091997
 H        -3.885675         3.235143        -1.511548
 H        -2.544277         3.104504        -2.889038
 H        -3.907728         1.407507         0.018146
 H        -2.249406        -0.590598         0.772333
 H        -1.823827        -0.710083        -0.979642
 H        -0.663007         3.197365         0.550651
 H        -2.184969         2.253113         1.382468
