19
Iteration:  1395charge 0 multiplicity 1
 O         0.414606         0.579559         0.751834
 C        -0.816784         1.017833         0.152242
 C        -0.601195         1.620264        -1.252951
 C        -1.910480         2.266633        -0.897908
 C        -3.031644         2.728370        -1.940082
 O        -3.405123         1.334279        -2.034958
 C        -2.886341         1.096477        -0.733632
 C        -1.963622        -0.007937        -0.137542
 C        -1.432754         2.330726         0.619108
 H         0.295248         0.213998         1.643975
 H         0.285101         2.121557        -1.580857
 H        -0.880717         0.858134        -1.979790
 H        -3.811421         3.467976        -1.671934
 H        -2.584325         3.104721        -2.862010
 H        -3.628549         1.287391         0.166282
 H        -2.453100        -0.385738         0.790027
 H        -1.580324        -0.812908        -0.761895
 H        -0.606757         2.985206         0.736774
 H        -2.082674         2.509894         1.552372
