19
Iteration:  3551
 O         0.342822         0.601174         0.906664
 C        -0.771521         0.990503         0.106006
 C        -0.646293         1.474086        -1.327347
 C        -1.889961         2.334525        -0.915602
 C        -2.984150         2.730221        -1.922495
 O        -3.460985         1.206272        -2.031922
 C        -2.921355         1.187151        -0.689070
 C        -1.975314         0.121164        -0.027940
 C        -1.306704         2.356006         0.491872
 H         0.791302        -0.231773         0.541979
 H         0.235992         2.127698        -1.475766
 H        -0.818501         0.811863        -2.249343
 H        -3.925502         3.205600        -1.439880
 H        -2.692962         3.223015        -2.943903
 H        -3.619611         1.541043        -0.005519
 H        -2.354660        -0.232221         0.913998
 H        -1.887145        -0.719614        -0.696462
 H        -0.577511         3.136504         0.641328
 H        -1.930597         2.493283         1.358506
