19
Iteration:  4593charge 0 multiplicity 1
 O         0.331232         0.518969         0.858845
 C        -0.688942         0.991721         0.087328
 C        -0.694134         1.693281        -1.268741
 C        -2.000768         2.281582        -0.779412
 C        -2.911661         2.685120        -1.982343
 O        -3.438307         1.346161        -2.093696
 C        -2.980169         0.977849        -0.748355
 C        -1.923957        -0.019062        -0.125427
 C        -1.403810         2.403361         0.637529
 H         1.054082         1.134606         0.967103
 H         0.070618         2.355211        -1.466806
 H        -0.661828         0.927994        -2.052610
 H        -3.671991         3.473352        -1.704144
 H        -2.355713         3.060384        -2.860187
 H        -3.782466         1.295387        -0.087209
 H        -2.043481        -0.283663         0.877900
 H        -1.608396        -0.934275        -0.739872
 H        -0.729350         3.164852         0.630577
 H        -1.938064         2.388448         1.566765
