19
Iteration:  1719
 O         0.413757         0.572286         0.805919
 C        -0.814684         0.977859         0.163294
 C        -0.651464         1.539187        -1.301601
 C        -1.961413         2.288892        -0.902340
 C        -2.903536         2.720099        -2.012198
 O        -3.530693         1.348265        -1.935045
 C        -2.882804         1.189236        -0.625789
 C        -1.964585        -0.055702        -0.114936
 C        -1.370369         2.446386         0.489850
 H         0.553856        -0.326619         1.070774
 H         0.228980         2.135668        -1.429071
 H        -0.732958         0.759349        -2.015857
 H        -3.585351         3.558124        -1.873793
 H        -2.462191         2.774117        -3.031912
 H        -3.508297         1.383228         0.141118
 H        -2.426998        -0.628172         0.776084
 H        -1.630406        -0.870406        -0.788283
 H        -0.579074         3.065560         0.770106
 H        -2.018069         2.754210         1.315287
