19
Iteration:  1844
 O         0.383735         0.534946         0.804273
 C        -0.764472         1.081419         0.178460
 C        -0.586699         1.499867        -1.283123
 C        -1.926164         2.222051        -0.982529
 C        -2.870040         2.710526        -2.026447
 O        -3.608310         1.370758        -1.953398
 C        -3.009588         1.143240        -0.626012
 C        -1.971745         0.026391        -0.050798
 C        -1.329529         2.359957         0.565631
 H         1.165473         0.541713         0.291921
 H         0.229384         2.272015        -1.471771
 H        -0.633809         0.727308        -2.115473
 H        -3.586773         3.530460        -1.879511
 H        -2.404864         2.642471        -3.001675
 H        -3.688931         1.364509         0.116472
 H        -2.515357        -0.202826         0.959604
 H        -1.606340        -0.741465        -0.758266
 H        -0.581246         3.122627         0.683658
 H        -1.909244         2.328725         1.486755
