19
Iteration:  1269
 O         0.422689         0.554441         0.683511
 C        -0.754158         1.041759         0.193048
 C        -0.771743         1.531779        -1.212356
 C        -2.027393         2.256691        -0.804678
 C        -2.922316         2.733168        -1.972297
 O        -3.411384         1.401176        -2.099683
 C        -2.869192         1.033129        -0.710260
 C        -1.927294        -0.016804        -0.094747
 C        -1.390403         2.419076         0.589352
 H         0.401042         0.436991         1.594161
 H         0.022293         2.300849        -1.227514
 H        -0.869710         0.837094        -2.091808
 H        -3.751556         3.422614        -1.810797
 H        -2.331973         2.877973        -2.889326
 H        -3.665555         1.128283         0.143169
 H        -2.388810        -0.322802         0.709295
 H        -1.710443        -0.943330        -0.669969
 H        -0.508977         3.169433         0.800633
 H        -2.038250         2.418259         1.456115
