19
Iteration:  4420
 O         0.282155         0.390531         0.911114
 C        -0.713658         1.092137         0.167404
 C        -0.689985         1.602237        -1.317847
 C        -2.013312         2.311775        -0.808506
 C        -3.009755         2.753185        -1.892801
 O        -3.401602         1.298776        -2.139505
 C        -2.855211         1.072945        -0.752355
 C        -1.869108        -0.014003        -0.106217
 C        -1.367085         2.448032         0.533172
 H         1.097992         0.916012         0.957689
 H        -0.077485         2.488963        -1.511387
 H        -0.858224         0.908953        -2.227749
 H        -3.899772         3.288485        -1.600205
 H        -2.577713         3.198978        -2.746306
 H        -3.613664         0.984306         0.023101
 H        -2.437047        -0.386041         0.679889
 H        -1.463726        -0.850419        -0.682666
 H        -0.720897         3.429760         0.591023
 H        -1.936428         2.385946         1.518504
