19
Iteration:  3156
 O         0.444607         0.620258         0.783081
 C        -0.822956         1.043460         0.090351
 C        -0.732751         1.395669        -1.360859
 C        -2.049331         2.190668        -0.773508
 C        -2.793074         2.792468        -1.917803
 O        -3.350121         1.332258        -2.082800
 C        -3.032413         1.142593        -0.692531
 C        -2.040949         0.003328        -0.004852
 C        -1.365858         2.351759         0.580803
 H         1.208696         1.049892         0.352351
 H         0.049342         2.169136        -1.421407
 H        -0.674271         0.698580        -2.174935
 H        -3.618339         3.470906        -1.455246
 H        -2.144144         3.109001        -2.858445
 H        -3.880111         1.337028        -0.002238
 H        -2.531891        -0.270591         1.016055
 H        -1.893351        -0.851255        -0.622065
 H        -0.645086         3.121232         0.600140
 H        -1.949800         2.480270         1.523198
