19
Iteration:  4976
 O         0.307544         0.405235         0.858049
 C        -0.789836         1.026093         0.099171
 C        -0.630044         1.688903        -1.294923
 C        -1.990227         2.294868        -0.845011
 C        -3.050568         2.680962        -1.874692
 O        -3.324273         1.255478        -2.127316
 C        -2.885730         1.132777        -0.702901
 C        -1.957783         0.017625        -0.075681
 C        -1.373839         2.439778         0.531932
 H         1.121801         0.907361         0.927716
 H         0.075965         2.545044        -1.303539
 H        -0.517236         1.060937        -2.184700
 H        -3.923244         3.264296        -1.396933
 H        -2.617481         3.154988        -2.819821
 H        -3.809352         1.203588        -0.034743
 H        -2.232442        -0.359584         0.929138
 H        -1.627076        -0.720724        -0.799462
 H        -0.514620         3.091366         0.876990
 H        -2.168202         2.496406         1.276825
