19
Iteration:  2237
 O         0.356444         0.517111         0.717095
 C        -0.689878         1.087403         0.083639
 C        -0.623715         1.466818        -1.411010
 C        -1.957640         2.235500        -0.829731
 C        -2.955780         2.709227        -1.945933
 O        -3.473470         1.322764        -2.059344
 C        -2.965673         1.139035        -0.568609
 C        -2.002951         0.109681         0.040639
 C        -1.296058         2.372782         0.500393
 H         0.188328         0.416896         1.715252
 H         0.047864         2.295881        -1.519177
 H        -0.583585         0.670988        -2.114889
 H        -3.781390         3.366642        -1.566920
 H        -2.464320         2.945854        -2.843757
 H        -3.769668         1.568374         0.163369
 H        -2.296947        -0.299414         0.994047
 H        -1.756261        -0.770902        -0.656389
 H        -0.442758         3.044274         0.713761
 H        -1.981446         2.474418         1.369368
