19
Iteration:  4032charge 0 multiplicity 1
 O         0.319014         0.496634         0.925475
 C        -0.708562         1.018093         0.109502
 C        -0.663537         1.683797        -1.333039
 C        -1.995380         2.323642        -0.852980
 C        -3.042880         2.660460        -1.971395
 O        -3.421761         1.206221        -2.029270
 C        -2.862555         1.116009        -0.676356
 C        -1.979124         0.073988        -0.071328
 C        -1.277783         2.438367         0.485404
 H         0.641109        -0.251563         0.386691
 H         0.206529         2.305885        -1.338807
 H        -0.649210         1.111509        -2.241578
 H        -3.869020         3.346353        -1.510424
 H        -2.715854         3.105719        -2.957289
 H        -3.733076         1.350216         0.031655
 H        -2.418017        -0.203607         0.858719
 H        -1.775602        -0.838613        -0.502917
 H        -0.359519         3.073413         0.510003
 H        -1.939883         2.578024         1.373428
