19
Iteration:  2218
 O         0.508696         0.558513         0.689308
 C        -0.749560         0.942413         0.177841
 C        -0.686736         1.490232        -1.263145
 C        -1.936235         2.249490        -0.925975
 C        -2.866827         2.739816        -2.038273
 O        -3.601275         1.402050        -1.961539
 C        -2.943126         1.101790        -0.688479
 C        -1.970855         0.012882        -0.005820
 C        -1.365238         2.429494         0.531737
 H         0.332899         0.452600         1.668285
 H         0.244098         2.033969        -1.352729
 H        -0.878335         0.713792        -1.963923
 H        -3.690472         3.516463        -1.811962
 H        -2.485916         2.866027        -3.057360
 H        -3.680340         1.275913         0.178095
 H        -2.474386        -0.245167         0.905234
 H        -1.671431        -0.888758        -0.568013
 H        -0.571679         3.341773         0.690026
 H        -2.032354         2.569665         1.426792
