19
Iteration:  4338
 O         0.392910         0.534064         0.822975
 C        -0.741403         1.079073         0.126147
 C        -0.664903         1.571241        -1.278549
 C        -2.026088         2.186504        -0.783761
 C        -2.881421         2.794280        -1.920678
 O        -3.461347         1.394394        -2.167307
 C        -2.977168         0.947838        -0.688836
 C        -1.924313        -0.039727        -0.041806
 C        -1.410165         2.410661         0.591764
 H         1.154113         1.072945         0.746855
 H         0.008982         2.411155        -1.623440
 H        -0.566020         0.805236        -2.024764
 H        -3.723714         3.530598        -1.881937
 H        -2.124202         3.054969        -2.753274
 H        -3.872525         1.176716        -0.025520
 H        -2.373782        -0.393565         0.965415
 H        -1.763122        -0.900317        -0.682087
 H        -0.678942         3.175580         0.507525
 H        -2.078274         2.406163         1.451559
