19
Iteration:  1917
 O         0.327375         0.272522         0.843971
 C        -0.719444         1.026551         0.035636
 C        -0.645375         1.647706        -1.400223
 C        -1.974761         2.315113        -0.868858
 C        -3.025696         2.672138        -2.001103
 O        -3.415816         1.208057        -1.993536
 C        -2.976121         1.191294        -0.620642
 C        -1.991668         0.131405         0.075768
 C        -1.192751         2.501797         0.451206
 H         0.917311         0.799665         1.434898
 H         0.075589         2.388820        -1.607140
 H        -0.720373         0.908879        -2.192145
 H        -3.843244         3.281269        -1.506997
 H        -2.688290         3.116455        -2.987617
 H        -3.867562         1.518184         0.096002
 H        -2.358489        -0.073335         1.125192
 H        -1.871738        -0.688563        -0.591777
 H        -0.460584         3.313610         0.465930
 H        -2.069951         2.495241         1.314456
