19
Iteration:  1176
 O         0.383378         0.390749         0.725826
 C        -0.735702         1.008865         0.110961
 C        -0.555664         1.694623        -1.268392
 C        -1.977775         2.292439        -0.797391
 C        -2.958241         2.698411        -2.030517
 O        -3.426969         1.185268        -1.988133
 C        -2.969409         1.117851        -0.611228
 C        -1.973825         0.121326        -0.158512
 C        -1.380116         2.536254         0.572430
 H        -0.015326        -0.189136         1.498963
 H         0.137019         2.507656        -1.070450
 H        -0.617201         1.122930        -2.159982
 H        -3.772963         3.368222        -1.712255
 H        -2.427548         2.785981        -2.983078
 H        -3.988262         1.380214         0.055078
 H        -2.199872        -0.524285         0.792946
 H        -1.856201        -0.610719        -0.955688
 H        -0.543761         3.146846         0.669213
 H        -2.018245         2.751068         1.471044
