19
Iteration:  1087
 O         0.339271         0.470735         0.769034
 C        -0.730534         1.025287         0.096077
 C        -0.668622         1.566792        -1.263981
 C        -1.999309         2.346624        -0.843618
 C        -3.055169         2.698201        -1.908262
 O        -3.381310         1.296803        -2.064962
 C        -2.826219         1.113913        -0.665118
 C        -1.983681        -0.008508        -0.073803
 C        -1.284764         2.452771         0.489451
 H         0.088978         0.524990         1.760939
 H         0.218722         2.195492        -1.375505
 H        -0.897352         0.876120        -2.070524
 H        -3.955743         3.175068        -1.434181
 H        -2.684414         3.122770        -2.876071
 H        -3.881194         1.366106        -0.078580
 H        -2.341438        -0.263312         0.868727
 H        -1.632920        -0.636309        -0.836934
 H        -0.374764         3.077495         0.616758
 H        -1.895868         2.533481         1.405229
