19
Iteration:  3869charge 0 multiplicity 1
 O         0.432479         0.636751         0.794672
 C        -0.796539         1.020133         0.129579
 C        -0.707082         1.517800        -1.319560
 C        -2.011621         2.311616        -0.861377
 C        -2.832323         2.688612        -2.179525
 O        -3.539928         1.317494        -1.935076
 C        -2.952252         1.143829        -0.591556
 C        -1.917522         0.056377         0.007895
 C        -1.362933         2.340636         0.536714
 H         0.509186        -0.246519         1.227300
 H         0.166534         2.181977        -1.403581
 H        -0.742580         0.807390        -2.180032
 H        -3.453763         3.508856        -2.229265
 H        -2.027378         2.919105        -2.939571
 H        -3.715724         1.227513         0.090052
 H        -2.441919        -0.462563         0.911176
 H        -1.717070        -0.851237        -0.645865
 H        -0.518450         3.077645         0.570103
 H        -1.995552         2.229246         1.404665
