19
Iteration:  4242charge 0 multiplicity 1
 O         0.377243         0.406582         0.785716
 C        -0.712920         1.042448         0.156120
 C        -0.669828         1.636894        -1.174579
 C        -2.016534         2.292936        -0.850332
 C        -2.882933         2.617582        -2.045049
 O        -3.499120         1.312529        -1.990734
 C        -2.980457         1.113972        -0.648021
 C        -1.928880         0.047453        -0.189424
 C        -1.417625         2.497175         0.603224
 H         1.154367         0.928916         0.854826
 H         0.082442         2.416353        -1.424091
 H        -0.515667         1.008963        -2.044983
 H        -3.565476         3.430748        -2.049530
 H        -2.217005         2.650436        -2.956880
 H        -3.701269         1.128338         0.138203
 H        -2.153006        -0.560915         0.676472
 H        -1.567985        -0.559130        -0.966445
 H        -0.621344         3.276639         0.650134
 H        -2.258328         2.384151         1.406559
