19
Iteration:  3373
 O         0.322444         0.395274         0.781500
 C        -0.779496         1.070470         0.202514
 C        -0.602542         1.613773        -1.232515
 C        -1.909420         2.262605        -0.911667
 C        -3.061957         2.673880        -1.996090
 O        -3.405540         1.302160        -1.992680
 C        -2.852969         1.123968        -0.691656
 C        -1.978977         0.032807        -0.124835
 C        -1.387906         2.471809         0.586252
 H         1.206826         0.795005         0.558714
 H         0.146166         2.491507        -1.278671
 H        -0.524789         0.917056        -2.082867
 H        -3.904843         3.350484        -1.544565
 H        -2.570887         2.953218        -2.964640
 H        -3.779991         1.245765        -0.042696
 H        -2.480143        -0.403605         0.769446
 H        -1.607822        -0.652821        -0.794248
 H        -0.626848         3.253570         0.690572
 H        -2.264405         2.488262         1.308600
