19
Iteration:  2184charge 0 multiplicity 1
 O         0.408246         0.560296         0.710687
 C        -0.728771         1.007697         0.107364
 C        -0.603448         1.534985        -1.248737
 C        -1.912035         2.204560        -0.863634
 C        -2.846497         2.682005        -2.028902
 O        -3.578327         1.292683        -1.890925
 C        -3.023351         1.141449        -0.569900
 C        -2.015471         0.107887        -0.143928
 C        -1.310553         2.442120         0.486751
 H         0.154820         0.146386         1.605182
 H         0.289924         2.125704        -1.238365
 H        -0.480911         0.814743        -2.006184
 H        -3.698064         3.436715        -1.762096
 H        -2.499411         2.778946        -3.043867
 H        -3.677349         1.565086         0.266153
 H        -2.412548        -0.501823         0.620273
 H        -1.822022        -0.659567        -0.949751
 H        -0.427156         3.262670         0.383488
 H        -2.039823         2.533068         1.361740
