19
Iteration:  1154
 O         0.428398         0.533345         0.651875
 C        -0.813685         1.007471         0.180854
 C        -0.677068         1.631642        -1.241456
 C        -1.902180         2.389653        -0.866423
 C        -2.910732         2.685842        -2.048494
 O        -3.406319         1.300053        -1.984189
 C        -2.927756         1.057848        -0.674097
 C        -2.015187         0.026782        -0.041728
 C        -1.386130         2.370913         0.572013
 H         0.235815         0.109331         1.447530
 H         0.165475         2.337835        -1.255806
 H        -0.767205         0.892426        -2.017285
 H        -3.789598         3.261840        -1.697487
 H        -2.501644         2.946044        -3.045781
 H        -3.779410         1.556122         0.014810
 H        -2.473820        -0.398582         0.850879
 H        -1.693209        -0.764440        -0.692685
 H        -0.621886         2.983102         0.962950
 H        -2.142096         2.299849         1.395428
