19
Iteration:  2286
 O         0.321671         0.380966         0.637849
 C        -0.748768         1.121229         0.153976
 C        -0.657262         1.519380        -1.257568
 C        -1.941294         2.296537        -0.892643
 C        -3.058799         2.628563        -1.992908
 O        -3.388092         1.247832        -2.023700
 C        -2.958349         1.150775        -0.604354
 C        -1.988531         0.137004         0.021300
 C        -1.194937         2.560029         0.530139
 H         0.156872        -0.146854         1.384008
 H         0.206296         2.200478        -1.329007
 H        -0.772587         0.742048        -2.060558
 H        -3.699367         3.271812        -1.384140
 H        -2.723622         3.106276        -3.005234
 H        -3.903260         1.379677         0.000352
 H        -2.254702        -0.368574         0.986468
 H        -1.700175        -0.578753        -0.672558
 H        -0.452647         3.416178         0.545830
 H        -1.830048         2.548945         1.426403
