19
Iteration:  4434charge 0 multiplicity 1
 O         0.332902         0.528019         0.885514
 C        -0.758050         0.974452         0.123764
 C        -0.679067         1.606425        -1.320706
 C        -1.972075         2.242288        -0.862487
 C        -3.020814         2.750309        -1.936037
 O        -3.409065         1.394874        -2.123947
 C        -2.896485         0.979678        -0.762275
 C        -1.893995         0.011154        -0.078776
 C        -1.392110         2.398340         0.639604
 H         0.999850         1.221852         0.874430
 H         0.314445         2.114719        -1.407308
 H        -0.776908         0.820934        -2.106132
 H        -3.764517         3.396400        -1.372029
 H        -2.586418         3.233966        -2.840949
 H        -3.857212         1.271221        -0.242637
 H        -2.221263        -0.417828         0.986894
 H        -1.515457        -0.865035        -0.658096
 H        -0.466394         3.086476         0.776440
 H        -2.174288         2.412883         1.386199
