19
Iteration:  1287charge 0 multiplicity 1
 O         0.415922         0.410649         0.696686
 C        -0.790822         1.038074         0.134727
 C        -0.647707         1.723351        -1.322352
 C        -2.018285         2.336191        -0.785925
 C        -2.909941         2.717857        -2.008768
 O        -3.381218         1.229500        -2.068762
 C        -2.982877         1.113495        -0.656629
 C        -1.943796         0.044316        -0.044231
 C        -1.392912         2.418739         0.651734
 H         0.257360         0.432991         1.603726
 H         0.173395         2.410616        -1.487674
 H        -0.730647         1.034221        -2.148235
 H        -3.776514         3.350957        -1.701077
 H        -2.393483         3.072648        -2.904070
 H        -3.857905         1.221060        -0.025345
 H        -2.231879        -0.680795         0.888100
 H        -1.634842        -0.792494        -0.769222
 H        -0.624534         3.148198         0.618708
 H        -2.110209         2.449795         1.471523
