19
Iteration:  4000
 O         0.436966         0.476662         0.730203
 C        -0.752021         1.068513         0.190681
 C        -0.711798         1.534610        -1.221269
 C        -1.983024         2.262881        -0.832880
 C        -2.826216         2.648177        -2.046520
 O        -3.465611         1.297893        -2.026629
 C        -2.949899         1.098901        -0.627759
 C        -1.962400         0.082974        -0.033760
 C        -1.469680         2.427650         0.524122
 H         1.130558         0.957968         0.171496
 H         0.075759         2.280248        -1.349299
 H        -0.746845         0.734225        -1.902307
 H        -3.660835         3.507282        -1.760047
 H        -2.359963         2.933831        -3.082901
 H        -3.796748         1.384666         0.207186
 H        -2.460928        -0.099436         0.915275
 H        -1.624350        -0.739680        -0.659395
 H        -0.683077         3.209573         0.613908
 H        -2.170248         2.542341         1.381631
