19
Iteration:  4314charge 0 multiplicity 1
 O         0.365230         0.541735         0.907768
 C        -0.833698         0.993493         0.132202
 C        -0.788235         1.533400        -1.289177
 C        -1.975245         2.302729        -0.797133
 C        -2.976082         2.749839        -1.895108
 O        -3.338351         1.363725        -2.110295
 C        -2.909520         1.030265        -0.761290
 C        -1.900653        -0.041304        -0.078030
 C        -1.320685         2.444675         0.518349
 H         1.085814         1.162562         0.726603
 H         0.076003         2.154621        -1.535895
 H        -0.808995         0.863773        -2.130701
 H        -3.948177         3.192099        -1.433727
 H        -2.686482         3.278130        -2.834233
 H        -3.713008         1.179693        -0.013908
 H        -2.515252        -0.559253         0.751998
 H        -1.633580        -0.829006        -0.848328
 H        -0.465684         3.065898         0.526144
 H        -1.983851         2.442618         1.300436
