19
Iteration:  4045charge 0 multiplicity 1
 O         0.300328         0.550803         0.923226
 C        -0.795253         1.005921         0.153896
 C        -0.641252         1.610933        -1.403719
 C        -1.908748         2.323747        -0.964350
 C        -3.119570         2.655409        -1.914605
 O        -3.330846         1.237715        -2.001290
 C        -2.909803         1.185708        -0.673679
 C        -1.917915         0.040145        -0.144157
 C        -1.251060         2.410660         0.560887
 H         0.320423        -0.442642         0.992652
 H         0.118584         2.366101        -1.624217
 H        -0.886953         0.914181        -2.142073
 H        -4.105469         3.080193        -1.371564
 H        -2.954985         3.070389        -2.984887
 H        -3.754884         1.488660         0.128323
 H        -2.278056        -0.230206         0.848573
 H        -1.702793        -0.762927        -0.815307
 H        -0.532164         3.203526         0.534069
 H        -1.818572         2.505415         1.535560
