19
Iteration:  4660charge 0 multiplicity 1
 O         0.308205         0.344329         0.852467
 C        -0.796499         1.110755         0.145370
 C        -0.667922         1.771485        -1.266603
 C        -2.018463         2.276705        -0.848004
 C        -2.978340         2.743075        -1.937262
 O        -3.376199         1.245149        -2.086536
 C        -2.867044         1.035964        -0.733214
 C        -1.881495         0.003687        -0.072932
 C        -1.396907         2.439068         0.572288
 H         1.161551         0.896437         0.902609
 H         0.123338         2.501564        -1.337110
 H        -0.704684         1.073624        -2.121409
 H        -3.881509         3.373854        -1.689361
 H        -2.710227         3.035180        -2.957496
 H        -3.768914         1.257570        -0.116227
 H        -2.257483        -0.385833         0.853907
 H        -1.548701        -0.764309        -0.827151
 H        -0.639734         3.194766         0.527894
 H        -2.022095         2.403131         1.417959
