19
Iteration:  2707
 O         0.436252         0.467144         0.763017
 C        -0.757751         0.987064         0.083843
 C        -0.616517         1.632827        -1.344943
 C        -1.962262         2.231986        -0.921504
 C        -2.914991         2.673183        -2.087577
 O        -3.565553         1.352672        -1.907850
 C        -2.982866         1.159109        -0.621523
 C        -2.020966        -0.040567        -0.034507
 C        -1.291441         2.427541         0.576466
 H         0.331132         0.880239         1.627577
 H         0.186287         2.335016        -1.209489
 H        -0.542944         0.937794        -2.160764
 H        -3.527665         3.564227        -1.913910
 H        -2.209756         2.833570        -2.965798
 H        -3.728178         1.456748         0.158143
 H        -2.221396        -0.406335         0.891478
 H        -1.805810        -0.826265        -0.764495
 H        -0.559674         3.313395         0.623910
 H        -1.910780         2.530507         1.445579
