19
Iteration:  1811charge 0 multiplicity 1
 O         0.382686         0.419980         0.794014
 C        -0.747783         1.018368         0.108433
 C        -0.671709         1.660484        -1.288051
 C        -1.979624         2.338648        -0.889250
 C        -2.931450         2.639931        -2.037448
 O        -3.400303         1.246099        -1.922478
 C        -2.980452         1.194419        -0.551811
 C        -2.020912         0.084145        -0.068711
 C        -1.328364         2.467863         0.485724
 H         0.828129        -0.319927         0.315750
 H         0.148053         2.444770        -1.330177
 H        -0.706237         0.952735        -2.179865
 H        -3.637468         3.496010        -2.033695
 H        -2.368800         2.795418        -2.959817
 H        -3.753644         1.389527         0.105188
 H        -2.498810        -0.458050         0.879106
 H        -1.928538        -0.864542        -0.628111
 H        -0.545515         3.202195         0.614700
 H        -1.946286         2.456413         1.394848
