19
Iteration:  3147charge 0 multiplicity 1
 O         0.407428         0.627354         0.794229
 C        -0.789890         0.925471         0.134648
 C        -0.774250         1.514592        -1.321199
 C        -1.976733         2.226588        -0.810580
 C        -2.814568         2.730552        -1.877180
 O        -3.320380         1.356749        -2.074432
 C        -2.984462         1.092635        -0.699939
 C        -2.064587         0.012130         0.010742
 C        -1.367994         2.372307         0.505710
 H         1.027760         1.022588         0.151276
 H         0.045915         2.171091        -1.426622
 H        -0.968124         0.853862        -2.096887
 H        -3.537134         3.570105        -1.575957
 H        -2.435115         3.132359        -2.869206
 H        -4.007293         1.309784        -0.119624
 H        -2.453669        -0.352590         1.069471
 H        -1.952990        -0.863521        -0.632336
 H        -0.528599         2.980171         0.439481
 H        -1.924374         2.533162         1.462532
