19
Iteration:   703charge 0 multiplicity 1
 O         0.355314         0.432098         0.831361
 C        -0.657969         1.050216         0.129801
 C        -0.592395         1.584923        -1.283280
 C        -2.058946         2.291083        -0.829703
 C        -3.051294         2.726894        -1.900689
 O        -3.485857         1.366356        -2.136798
 C        -2.925646         1.052576        -0.694405
 C        -1.874678         0.039205        -0.098576
 C        -1.369187         2.410969         0.563033
 H         0.920753         0.991197         1.306033
 H        -0.008827         2.413805        -1.467813
 H        -0.567966         0.799489        -2.025686
 H        -3.948174         3.375587        -1.620929
 H        -2.519914         3.050406        -2.855153
 H        -3.768908         1.160462         0.093415
 H        -2.204175        -0.460308         0.832645
 H        -1.589973        -0.807408        -0.794816
 H        -0.575905         3.124387         0.542280
 H        -1.904720         2.300800         1.460253
