19
Iteration:   617
 O         0.326053         0.458529         0.800749
 C        -0.740671         1.002126         0.063508
 C        -0.631616         1.717157        -1.339492
 C        -2.041054         2.283767        -0.798772
 C        -3.028310         2.710063        -1.907890
 O        -3.335731         1.330760        -2.063150
 C        -2.927350         1.009584        -0.662494
 C        -1.833808         0.042766        -0.087784
 C        -1.413765         2.426898         0.590857
 H         0.250187        -0.519878         0.953612
 H         0.047585         2.556701        -1.256462
 H        -0.561421         1.159187        -2.294126
 H        -3.971531         3.283157        -1.618669
 H        -2.633685         3.198011        -2.886940
 H        -3.836056         1.119725        -0.108282
 H        -2.243368        -0.167200         0.874846
 H        -1.481283        -0.768518        -0.717528
 H        -0.637711         3.239236         0.581968
 H        -1.988806         2.558604         1.595284
