19
Iteration:  1274
 O         0.396571         0.521436         0.672077
 C        -0.746510         1.001066         0.176099
 C        -0.770930         1.589053        -1.235113
 C        -2.030517         2.251953        -0.826881
 C        -2.932585         2.700167        -1.993426
 O        -3.394461         1.397975        -2.079452
 C        -2.847174         1.036462        -0.689915
 C        -1.933075         0.004219        -0.076193
 C        -1.386269         2.424831         0.623140
 H         0.406763         0.441596         1.698133
 H         0.003603         2.364558        -1.348324
 H        -0.875116         0.910986        -2.065643
 H        -3.772415         3.425280        -1.881818
 H        -2.343334         2.936574        -2.907180
 H        -3.658946         1.183940        -0.036673
 H        -2.493960        -0.393879         0.952954
 H        -1.499452        -0.734348        -0.764015
 H        -0.646104         3.147484         0.778285
 H        -2.000989         2.511205         1.571920
