19
Iteration:   825charge 0 multiplicity 1
 O         0.402125         0.559992         0.855486
 C        -0.709752         0.990304         0.068509
 C        -0.634355         1.569041        -1.358104
 C        -1.978859         2.316314        -0.834691
 C        -3.054686         2.730890        -1.914150
 O        -3.331792         1.240051        -2.070952
 C        -2.966153         1.143247        -0.635237
 C        -2.067349         0.053880        -0.087241
 C        -1.324493         2.424634         0.615627
 H         0.787537        -0.236746         0.435869
 H         0.128972         2.260624        -1.585736
 H        -0.687612         1.015727        -2.254897
 H        -3.887465         3.293299        -1.627597
 H        -2.600351         3.080629        -2.858668
 H        -3.879479         1.160524         0.074692
 H        -2.428144        -0.390137         0.843668
 H        -1.859589        -0.645800        -0.953810
 H        -0.590569         3.166564         0.823608
 H        -1.890584         2.355275         1.519930
