19
Iteration:  4061
 O         0.322071         0.571974         0.897253
 C        -0.690157         1.057537         0.062352
 C        -0.650225         1.525693        -1.378210
 C        -1.978931         2.326355        -0.845179
 C        -3.089984         2.711679        -1.889548
 O        -3.387027         1.235113        -2.052768
 C        -2.832427         1.112139        -0.626358
 C        -1.968132         0.064155        -0.088003
 C        -1.311023         2.465901         0.474471
 H        -0.122531        -0.206711         1.402555
 H         0.286830         2.123293        -1.470997
 H        -0.712023         0.745324        -2.248665
 H        -3.781098         3.182655        -1.313267
 H        -2.840503         3.163036        -2.791289
 H        -3.650981         1.304800        -0.008565
 H        -2.363349        -0.723220         0.633742
 H        -1.661229        -0.606442        -1.037691
 H        -0.407492         3.045178         0.811660
 H        -2.066580         2.501376         1.218039
