19
Iteration:   833
 O         0.378321         0.526827         0.904851
 C        -0.712079         0.984365         0.026217
 C        -0.622038         1.589028        -1.349101
 C        -2.035568         2.330589        -0.816921
 C        -3.034425         2.700062        -1.937670
 O        -3.330514         1.254599        -2.006588
 C        -2.968544         1.155373        -0.688479
 C        -2.025067         0.040765        -0.117012
 C        -1.291861         2.424449         0.609919
 H         0.911579        -0.154638         0.360907
 H         0.198522         2.309124        -1.525897
 H        -0.665738         0.854884        -2.244165
 H        -3.881817         3.158876        -1.409402
 H        -2.927034         3.200872        -2.897707
 H        -3.934377         1.346383        -0.186666
 H        -2.458938        -0.355624         0.831079
 H        -1.874503        -0.800780        -0.917015
 H        -0.604444         3.413105         0.557620
 H        -1.861853         2.427125         1.565450
