19
Iteration:  4756charge 0 multiplicity 1
 O         0.180636         0.283465         0.922725
 C        -0.670300         1.057585         0.120884
 C        -0.653358         1.784571        -1.338801
 C        -1.975157         2.337389        -0.851478
 C        -3.091622         2.631051        -1.943985
 O        -3.350219         1.264646        -2.086306
 C        -2.870652         1.061634        -0.685679
 C        -1.834656         0.043230        -0.111074
 C        -1.405546         2.539105         0.562410
 H         1.032295         0.789732         0.822741
 H         0.067489         2.538610        -1.382349
 H        -0.622306         1.229513        -2.281998
 H        -3.803763         3.291531        -1.553782
 H        -2.647524         3.010846        -2.839904
 H        -3.801001         1.134501        -0.088743
 H        -2.169461        -0.382347         0.800743
 H        -1.373580        -0.747776        -0.864078
 H        -0.590971         3.175304         0.705535
 H        -1.982767         2.322983         1.495935
