19
Iteration:  4909
 O         0.328049         0.392174         0.843336
 C        -0.680176         1.043899         0.134622
 C        -0.611439         1.717226        -1.251936
 C        -2.036373         2.305534        -0.861518
 C        -2.950606         2.691910        -1.948604
 O        -3.446858         1.303296        -2.083735
 C        -2.914728         1.022585        -0.684978
 C        -1.909412         0.047423        -0.113607
 C        -1.459962         2.392071         0.553520
 H         1.102826         1.046555         0.848213
 H        -0.141892         2.702446        -1.293173
 H        -0.282902         1.058311        -2.082657
 H        -3.746959         3.478568        -1.807253
 H        -2.411166         2.899229        -2.900629
 H        -3.717759         1.236049         0.028915
 H        -2.260086        -0.262877         0.810696
 H        -1.685594        -0.866991        -0.697610
 H        -0.613966         3.015217         0.850301
 H        -2.208359         2.504685         1.380315
