19
Iteration:  4439
 O         0.361524         0.572518         0.862459
 C        -0.788672         0.964204         0.115358
 C        -0.620965         1.595473        -1.316349
 C        -1.934714         2.241114        -0.869376
 C        -3.012414         2.759687        -1.942826
 O        -3.406914         1.384475        -2.130318
 C        -2.939463         1.021079        -0.723618
 C        -1.911983        -0.000544        -0.048762
 C        -1.428568         2.331093         0.614804
 H         0.935309         1.405528         0.818821
 H         0.245898         2.249013        -1.379812
 H        -0.698880         0.744583        -1.975608
 H        -3.642200         3.398228        -1.304427
 H        -2.517687         3.344814        -2.765785
 H        -3.851050         1.121861        -0.137620
 H        -2.260300        -0.414195         0.874189
 H        -1.708358        -0.837490        -0.728561
 H        -0.543375         2.858227         0.755477
 H        -2.207823         2.465965         1.395689
