19
Iteration:  3923charge 0 multiplicity 1
 O         0.326546         0.399486         0.823786
 C        -0.748192         1.060676         0.168344
 C        -0.636817         1.521839        -1.263291
 C        -1.909244         2.272937        -0.960015
 C        -3.151676         2.654762        -1.954840
 O        -3.434842         1.310040        -2.044037
 C        -2.857511         1.104223        -0.660998
 C        -1.872061         0.056269        -0.010735
 C        -1.314482         2.574084         0.404924
 H         0.161303         0.400211         1.761445
 H         0.168783         2.182741        -1.476355
 H        -0.634246         0.696724        -1.959489
 H        -3.707978         3.249528        -1.162864
 H        -2.865310         3.129157        -2.960295
 H        -3.773828         1.430150        -0.007576
 H        -2.356872        -0.278473         0.966409
 H        -1.617156        -0.658505        -0.780804
 H        -0.401222         3.237409         0.474955
 H        -1.972658         2.911470         1.202467
