19
Iteration:  2437
 O         0.437742         0.539737         0.627150
 C        -0.842830         1.000479         0.166991
 C        -0.752906         1.512728        -1.295368
 C        -1.968458         2.257623        -0.845861
 C        -2.799072         2.682630        -2.030658
 O        -3.493509         1.348336        -1.932596
 C        -2.919771         1.108490        -0.646772
 C        -2.035467         0.027696         0.029126
 C        -1.292460         2.516058         0.535000
 H         0.575758        -0.178746         1.220546
 H         0.057884         2.184949        -1.453957
 H        -0.745284         0.792038        -2.072857
 H        -3.714236         3.426100        -2.028998
 H        -2.357938         2.856160        -2.996510
 H        -3.623785         1.419189         0.104154
 H        -2.517082        -0.303575         1.048739
 H        -1.807494        -0.922413        -0.533418
 H        -0.318204         3.152305         0.422104
 H        -1.940984         2.697617         1.447453
