19
Iteration:  2835charge 0 multiplicity 1
 O         0.354674         0.462877         0.607404
 C        -0.808079         1.087627         0.135866
 C        -0.599133         1.598490        -1.231261
 C        -1.941606         2.307793        -0.826319
 C        -2.912021         2.608104        -2.041036
 O        -3.474979         1.261013        -1.996236
 C        -2.976823         1.154571        -0.542829
 C        -1.977591         0.081243        -0.067053
 C        -1.327413         2.516998         0.546220
 H         0.214780        -0.151294         1.400017
 H         0.291102         2.198658        -1.187857
 H        -0.358878         0.895283        -2.002590
 H        -3.700432         3.382729        -1.827720
 H        -2.541906         2.687981        -3.056418
 H        -3.619768         1.454860         0.205868
 H        -2.321139        -0.446725         0.942780
 H        -1.771812        -0.836979        -0.732453
 H        -0.336856         3.054019         0.683480
 H        -2.035848         2.522652         1.327339
