19
Iteration:   811
 O         0.409148         0.596443         0.752662
 C        -0.803912         1.006063         0.161517
 C        -0.756724         1.639929        -1.289362
 C        -1.992047         2.274779        -0.834009
 C        -2.923470         2.688855        -1.948925
 O        -3.385977         1.307064        -2.077127
 C        -2.908928         1.120239        -0.622634
 C        -1.940579         0.034768        -0.041008
 C        -1.357768         2.323204         0.552910
 H         0.517628        -0.323277         0.489863
 H         0.143598         2.285367        -1.376725
 H        -0.782089         0.866746        -2.127859
 H        -3.768348         3.291895        -1.658284
 H        -2.505435         3.126411        -2.842591
 H        -3.739483         1.566631        -0.059220
 H        -2.354799        -0.413640         0.913230
 H        -1.701419        -0.831780        -0.767184
 H        -0.453078         3.067381         0.758226
 H        -2.137474         2.455811         1.342877
