19
Iteration:  2101
 O         0.528708         0.559113         0.648697
 C        -0.774391         0.921580         0.174274
 C        -0.795357         1.476429        -1.316063
 C        -1.962341         2.324146        -0.846715
 C        -2.890209         2.732846        -2.006296
 O        -3.426174         1.306355        -1.991024
 C        -2.941864         1.117326        -0.643712
 C        -2.034579         0.031919         0.040049
 C        -1.370024         2.494526         0.505125
 H         0.527195         0.201140         1.517045
 H         0.190317         2.065519        -1.410802
 H        -0.837342         0.616530        -2.065398
 H        -3.672863         3.480875        -1.817839
 H        -2.333942         2.967104        -2.994482
 H        -3.859605         1.441197         0.059395
 H        -2.588147        -0.059017         1.021974
 H        -1.931160        -0.874247        -0.541168
 H        -0.536765         3.084063         0.687162
 H        -1.981450         2.641850         1.355866
