19
Iteration:  2167charge 0 multiplicity 1
 O         0.322808         0.439739         0.797312
 C        -0.764867         1.015265         0.107182
 C        -0.622843         1.584261        -1.397498
 C        -1.924753         2.343747        -0.953203
 C        -3.014149         2.637046        -1.990751
 O        -3.512548         1.277570        -1.928859
 C        -2.861492         1.202372        -0.582421
 C        -1.947012         0.086363        -0.064152
 C        -1.259751         2.458901         0.524044
 H        -0.048688         0.051413         1.659345
 H         0.116064         2.430755        -1.573798
 H        -0.737984         0.788480        -2.229065
 H        -3.750508         3.302437        -1.656078
 H        -2.530126         2.760907        -3.011389
 H        -3.649313         1.372438         0.153794
 H        -2.207249        -0.413308         0.936455
 H        -1.719677        -0.680726        -0.778545
 H        -0.444975         3.066031         0.710059
 H        -1.867329         2.507402         1.394628
