19
Iteration:  4731
 O         0.312362         0.421509         0.832026
 C        -0.705251         1.055093         0.150369
 C        -0.568078         1.662701        -1.262029
 C        -1.965277         2.309003        -0.848036
 C        -3.025229         2.781009        -1.910170
 O        -3.385590         1.224739        -2.116978
 C        -2.955139         1.074772        -0.716720
 C        -1.932788         0.023793        -0.101446
 C        -1.451884         2.407416         0.549133
 H         0.902582         1.212309         1.108078
 H         0.380205         2.295277        -1.350685
 H        -0.715717         0.940898        -2.080185
 H        -3.903113         3.389998        -1.518511
 H        -2.654145         3.253559        -2.838058
 H        -3.802658         1.107462        -0.046759
 H        -2.303558        -0.502909         0.777119
 H        -1.473292        -0.680292        -0.762606
 H        -0.587643         3.167030         0.634106
 H        -2.044077         2.299324         1.521405
