19
Iteration:  2649charge 0 multiplicity 1
 O         0.427882         0.461917         0.775568
 C        -0.746344         0.949564         0.128136
 C        -0.704750         1.565792        -1.356214
 C        -1.982382         2.296676        -0.919564
 C        -3.039674         2.703894        -1.930178
 O        -3.371663         1.300038        -2.014619
 C        -2.862240         1.108177        -0.623084
 C        -2.035332         0.138061         0.035695
 C        -1.300305         2.502607         0.465000
 H         0.102310        -0.272458         1.326508
 H         0.173361         2.153402        -1.492307
 H        -0.713656         0.952856        -2.220423
 H        -3.844895         3.307616        -1.477280
 H        -2.625135         3.111057        -2.855955
 H        -3.862769         1.317056        -0.120345
 H        -2.439499        -0.231093         1.027866
 H        -1.890879        -0.838341        -0.480542
 H        -0.338193         3.095450         0.386423
 H        -2.013877         2.634527         1.351935
