19
Iteration:  4094charge 0 multiplicity 1
 O         0.452781         0.500417         0.736560
 C        -0.757569         1.061881         0.204731
 C        -0.594107         1.625518        -1.246797
 C        -2.014299         2.216522        -0.903566
 C        -2.937957         2.688284        -2.022884
 O        -3.578353         1.378836        -2.050880
 C        -2.889373         1.037708        -0.712856
 C        -1.939290        -0.027639        -0.010092
 C        -1.373274         2.421445         0.562918
 H         0.466200         0.865390         1.644274
 H         0.155529         2.425624        -1.199646
 H        -0.596047         0.897798        -2.148099
 H        -3.600732         3.455513        -1.662705
 H        -2.551803         2.932652        -2.974521
 H        -3.699146         1.176225        -0.006875
 H        -2.521039        -0.436552         0.854328
 H        -1.532028        -0.814928        -0.793858
 H        -0.550147         3.141242         0.759923
 H        -2.106415         2.597591         1.313904
