19
Iteration:    32
 O         0.393447         0.304243         0.872302
 C        -0.758396         1.011910         0.174161
 C        -0.563444         1.715848        -1.256028
 C        -1.970688         2.265918        -0.913542
 C        -3.151466         2.666511        -1.877249
 O        -3.460739         1.357000        -2.064539
 C        -2.906954         1.053342        -0.697514
 C        -1.850667        -0.030172        -0.189118
 C        -1.437412         2.584213         0.486690
 H         1.063038         0.934912         1.268000
 H         0.213479         2.503340        -1.271554
 H        -0.427957         1.081566        -2.113494
 H        -3.899555         3.209001        -1.193407
 H        -2.901182         3.159302        -2.804004
 H        -3.586783         1.243416         0.133114
 H        -2.165468        -0.756400         0.615681
 H        -1.436977        -0.552447        -1.073940
 H        -0.679375         3.273140         0.632588
 H        -2.053243         2.699526         1.372444
