19
Iteration:  1835charge 0 multiplicity 1
 O         0.383564         0.508899         0.811005
 C        -0.764205         0.987534         0.139931
 C        -0.629915         1.586175        -1.337555
 C        -1.925207         2.248425        -0.890356
 C        -2.908917         2.671148        -2.118719
 O        -3.622891         1.347135        -1.962858
 C        -2.933857         1.157156        -0.630651
 C        -1.947907         0.073492        -0.009353
 C        -1.348797         2.393660         0.634035
 H         1.040895         0.327401         0.167096
 H         0.302296         2.227787        -1.372977
 H        -0.711316         0.853163        -2.174297
 H        -3.362481         3.645516        -2.024857
 H        -2.351221         2.705067        -3.043661
 H        -3.664239         1.388534         0.083306
 H        -2.399353        -0.400806         0.866718
 H        -1.731073        -0.888633        -0.525200
 H        -0.465530         3.168717         0.765039
 H        -1.948771         2.463804         1.469050
