19
Iteration:  4473charge 0 multiplicity 1
 O         0.461784         0.506756         0.818349
 C        -0.765157         0.988412         0.155197
 C        -0.614668         1.651381        -1.264442
 C        -1.964376         2.297233        -0.843945
 C        -2.919695         2.680357        -1.971169
 O        -3.412001         1.308360        -2.076799
 C        -2.942971         1.080306        -0.691243
 C        -2.038464        -0.022150        -0.153479
 C        -1.476534         2.403912         0.647091
 H         0.931450         1.343205         1.003873
 H         0.160340         2.369383        -1.495997
 H        -0.680341         0.933785        -2.131263
 H        -3.713769         3.402391        -1.628616
 H        -2.487874         3.053422        -2.928599
 H        -3.758677         1.100411        -0.012020
 H        -2.495267        -0.482317         0.638745
 H        -1.819218        -0.753232        -0.936069
 H        -0.676407         3.091462         0.848069
 H        -2.205516         2.536003         1.463626
