19
Iteration:  3910
 O         0.377242         0.516479         0.792274
 C        -0.760182         1.030636         0.215101
 C        -0.542511         1.473258        -1.281015
 C        -1.937727         2.255090        -0.961757
 C        -3.035861         2.722191        -1.908520
 O        -3.479956         1.243800        -2.000140
 C        -2.889579         1.141054        -0.690472
 C        -2.009290         0.083012        -0.063003
 C        -1.312700         2.519114         0.430522
 H         0.101518         0.136257         1.683448
 H         0.266340         2.120036        -1.262053
 H        -0.505953         0.746308        -2.108128
 H        -4.022232         3.299921        -1.627833
 H        -2.890980         3.112582        -2.942148
 H        -3.661335         1.450505         0.184609
 H        -2.361042        -0.460676         0.790471
 H        -1.565153        -0.633555        -0.656562
 H        -0.466756         3.275735         0.339503
 H        -2.007607         2.691151         1.251866
