19
Iteration:   173charge 0 multiplicity 1
 O         0.298198         0.509055         0.791562
 C        -0.805854         0.991135         0.119943
 C        -0.593723         1.768588        -1.242846
 C        -2.061371         2.305147        -0.793238
 C        -3.003081         2.753271        -1.859145
 O        -3.351194         1.278633        -2.090711
 C        -2.917028         1.004291        -0.705431
 C        -1.868433        -0.006419        -0.233426
 C        -1.415861         2.344364         0.650536
 H         1.044642         0.736419         0.257801
 H         0.208498         2.455960        -1.064944
 H        -0.528813         1.111134        -2.060033
 H        -3.951080         3.280682        -1.537119
 H        -2.595381         3.180581        -2.730434
 H        -3.807944         1.113045        -0.021551
 H        -2.192228        -0.664685         0.609213
 H        -1.393392        -0.608068        -1.053128
 H        -0.624746         3.070934         0.715868
 H        -1.946823         2.389561         1.656422
