19
Iteration:  1651charge 0 multiplicity 1
 O         0.438168         0.466137         0.829450
 C        -0.765374         0.971869         0.176441
 C        -0.688874         1.563981        -1.372022
 C        -1.901273         2.319547        -0.870541
 C        -3.046383         2.704399        -1.932708
 O        -3.356654         1.291629        -2.025791
 C        -2.908753         1.146387        -0.648509
 C        -2.030756         0.020229        -0.067070
 C        -1.342707         2.498476         0.470267
 H         0.053701        -0.307716         1.206890
 H         0.092352         2.284937        -1.552544
 H        -0.802320         0.842067        -2.133631
 H        -3.851221         3.367858        -1.550690
 H        -2.713243         3.164867        -2.884352
 H        -3.626495         1.482325        -0.003847
 H        -2.420226        -0.311508         0.940344
 H        -1.865552        -0.922801        -0.661537
 H        -0.588018         3.341708         0.694175
 H        -1.977730         2.830072         1.236645
