19
Iteration:  4154
 O         0.273756         0.381727         0.820128
 C        -0.807560         1.001101         0.074649
 C        -0.616005         1.631955        -1.267350
 C        -2.056094         2.319259        -0.803779
 C        -3.035608         2.713292        -1.955117
 O        -3.313498         1.219406        -2.062715
 C        -2.891943         1.086371        -0.667913
 C        -1.893658         0.082966        -0.082194
 C        -1.338293         2.533342         0.585544
 H         1.103156         0.762127         0.614344
 H         0.109839         2.447538        -1.497351
 H        -0.789167         1.014408        -2.121432
 H        -4.003720         3.099586        -1.528673
 H        -2.501692         3.040877        -2.895660
 H        -3.821126         1.200372        -0.133516
 H        -2.255723        -0.318354         0.848826
 H        -1.770575        -0.703159        -0.726677
 H        -0.423607         3.133023         0.382886
 H        -1.957126         2.872947         1.557754
