19
Iteration:  3035charge 0 multiplicity 1
 O         0.471313         0.592428         0.827981
 C        -0.676097         0.958390         0.108947
 C        -0.641867         1.476974        -1.340959
 C        -2.011816         2.223356        -0.858265
 C        -2.904015         2.740318        -1.946857
 O        -3.513899         1.435311        -2.063645
 C        -2.947239         1.103735        -0.660235
 C        -2.019461        -0.013588        -0.068711
 C        -1.364453         2.328676         0.499948
 H         0.434291         0.983086         1.673868
 H         0.131083         2.214335        -1.416552
 H        -0.608923         0.705611        -2.062960
 H        -3.624520         3.531155        -1.585239
 H        -2.466714         3.249274        -2.867519
 H        -3.866065         1.271678         0.070980
 H        -2.427517        -0.192612         0.988064
 H        -1.964658        -0.960079        -0.701474
 H        -0.716072         3.145507         0.747359
 H        -2.039832         2.388654         1.331139
