19
Iteration:   376
 O         0.351688         0.434850         0.824174
 C        -0.651548         0.971047         0.102874
 C        -0.561270         1.779163        -1.223796
 C        -2.005452         2.229324        -0.848784
 C        -3.110355         2.759425        -1.880245
 O        -3.433897         1.358932        -2.156176
 C        -2.871651         1.031769        -0.699155
 C        -1.839510         0.043687        -0.186847
 C        -1.447248         2.381030         0.622259
 H        -0.050869        -0.214966         1.350744
 H         0.120368         2.729477        -1.241028
 H        -0.222416         1.089241        -2.071566
 H        -3.877187         3.157323        -1.185047
 H        -3.064985         3.240650        -2.969512
 H        -3.642443         1.156370         0.090069
 H        -2.157449        -0.557838         0.719049
 H        -1.481121        -0.752937        -0.838444
 H        -0.910898         3.372563         0.652703
 H        -2.161403         2.331062         1.383458
