19
Iteration:  1073
 O         0.330568         0.421741         0.771618
 C        -0.763911         1.032624         0.126109
 C        -0.626499         1.642027        -1.397747
 C        -1.877641         2.321534        -0.932559
 C        -3.024031         2.665650        -1.936492
 O        -3.363166         1.248432        -1.972393
 C        -2.938143         1.143707        -0.606332
 C        -1.960435         0.104705        -0.105862
 C        -1.361077         2.437453         0.580637
 H         0.115904         0.248749         1.682557
 H         0.161710         2.360208        -1.529478
 H        -0.561936         0.936622        -2.232153
 H        -3.772069         3.311677        -1.497178
 H        -2.850332         3.034638        -2.934790
 H        -3.711053         1.396065         0.225705
 H        -2.336351        -0.565954         0.741514
 H        -1.733622        -0.718872        -0.793148
 H        -0.667295         3.295777         0.747515
 H        -2.109843         2.399874         1.286172
