19
Iteration:  3829charge 0 multiplicity 1
 O         0.390003         0.469746         0.804028
 C        -0.733399         1.018023         0.126357
 C        -0.628099         1.590886        -1.283311
 C        -1.992723         2.296573        -0.915727
 C        -2.999441         2.743243        -1.930005
 O        -3.340961         1.160678        -2.039190
 C        -2.931581         1.163482        -0.608998
 C        -2.042910         0.111428         0.036121
 C        -1.331961         2.509809         0.401942
 H         0.114624        -0.448981         0.839312
 H         0.274727         2.328820        -1.356527
 H        -0.453364         0.864168        -2.097093
 H        -3.966363         3.140926        -1.489040
 H        -2.780139         3.040812        -2.937719
 H        -3.851977         1.490937         0.069175
 H        -2.405326        -0.274241         0.991888
 H        -1.891501        -0.724967        -0.710083
 H        -0.525401         3.200522         0.470819
 H        -1.984657         2.689984         1.286619
