19
Iteration:  1225charge 0 multiplicity 1
 O         0.415786         0.589303         0.838840
 C        -0.767054         0.974275         0.107241
 C        -0.605777         1.587225        -1.307341
 C        -1.948168         2.344084        -0.924732
 C        -3.007365         2.737469        -1.889238
 O        -3.433094         1.303695        -2.056187
 C        -2.915529         1.140242        -0.676950
 C        -1.997103        -0.033281        -0.109522
 C        -1.352726         2.351571         0.509598
 H         0.158432        -0.023084         1.473600
 H         0.274379         2.256290        -1.323390
 H        -0.599671         0.756057        -2.076832
 H        -3.808607         3.250574        -1.329860
 H        -2.699445         3.215746        -2.830608
 H        -3.843461         1.206564         0.010949
 H        -2.378744        -0.225073         0.789097
 H        -1.683458        -0.907263        -0.698418
 H        -0.573841         3.169290         0.838138
 H        -2.052868         2.395421         1.329911
