19
Iteration:  1957charge 0 multiplicity 1
 O         0.379387         0.527876         0.674226
 C        -0.725288         1.053968         0.218019
 C        -0.695764         1.409973        -1.312218
 C        -1.949836         2.283403        -0.887218
 C        -2.813666         2.676310        -2.032065
 O        -3.486343         1.286268        -1.985179
 C        -3.012028         1.187314        -0.555361
 C        -2.050105         0.078084         0.016000
 C        -1.342195         2.463893         0.561756
 H         1.101737         0.728069         0.060768
 H         0.182037         2.167955        -1.417460
 H        -0.782428         0.649432        -2.129208
 H        -3.451140         3.509721        -1.827459
 H        -2.366722         2.600046        -3.040869
 H        -3.866157         1.396754         0.048984
 H        -2.454037        -0.325682         0.925133
 H        -1.770887        -0.659978        -0.797852
 H        -0.519382         3.181127         0.858340
 H        -1.914984         2.486747         1.414932
