19
Iteration:  4226
 O         0.391768         0.546727         0.848917
 C        -0.773738         0.978699         0.181763
 C        -0.682397         1.639196        -1.306632
 C        -1.981270         2.262701        -0.818526
 C        -2.821641         2.700528        -2.053728
 O        -3.512094         1.288846        -2.052095
 C        -2.919389         1.117110        -0.559304
 C        -1.961986         0.015965        -0.154670
 C        -1.415607         2.356916         0.591296
 H         0.994924         1.180278         0.384214
 H         0.144141         2.387675        -1.296267
 H        -0.724846         0.942774        -2.212632
 H        -3.662000         3.389012        -1.726073
 H        -2.243634         2.890700        -2.964203
 H        -3.829755         1.479715         0.033672
 H        -2.381646        -0.698926         0.634161
 H        -1.744527        -0.668359        -1.084109
 H        -0.549329         3.015295         0.719470
 H        -2.024553         2.450959         1.430077
