19
Iteration:  3588charge 0 multiplicity 1
 O         0.195533         0.413134         0.942432
 C        -0.747025         1.017466         0.136598
 C        -0.617277         1.601877        -1.304626
 C        -1.915264         2.289903        -0.951242
 C        -2.990285         2.710910        -1.986088
 O        -3.538782         1.222249        -1.947860
 C        -2.886540         1.141023        -0.628212
 C        -1.915885         0.084960        -0.059030
 C        -1.252230         2.518759         0.402092
 H         1.034718         0.369380         0.458185
 H         0.307549         2.257618        -1.316794
 H        -0.549783         0.964419        -2.202668
 H        -3.830371         3.356894        -1.657628
 H        -2.747793         2.950992        -3.008107
 H        -3.651725         1.413719         0.118506
 H        -2.108978        -0.475599         0.863269
 H        -1.451296        -0.685398        -0.747754
 H        -0.313145         3.124845         0.249953
 H        -1.930677         2.769196         1.248162
