19
Iteration:  3617
 O         0.403046         0.458856         0.832775
 C        -0.712942         1.037990         0.160232
 C        -0.686147         1.492232        -1.297892
 C        -1.928388         2.246522        -0.909699
 C        -2.846254         2.669847        -2.082286
 O        -3.528341         1.316088        -1.947652
 C        -2.998949         1.177838        -0.578983
 C        -2.041255         0.013045        -0.055464
 C        -1.348463         2.496345         0.483182
 H         1.064353         1.114406         0.960438
 H         0.133594         2.177621        -1.481909
 H        -0.552785         0.795671        -2.200060
 H        -3.670705         3.472614        -1.881849
 H        -2.470230         2.925356        -3.168656
 H        -3.821931         1.378935         0.120589
 H        -2.218247        -0.445356         0.874499
 H        -1.617459        -0.790301        -0.666207
 H        -0.626834         3.322651         0.650852
 H        -2.086212         2.632728         1.228785
