19
Iteration:  3992
 O         0.479676         0.506938         0.704051
 C        -0.797271         0.999796         0.205950
 C        -0.752699         1.511133        -1.201755
 C        -1.972663         2.307259        -0.888782
 C        -2.838941         2.671186        -2.032416
 O        -3.461347         1.290691        -1.988184
 C        -2.898167         1.113665        -0.691901
 C        -2.009442         0.108218        -0.018154
 C        -1.449702         2.442881         0.571649
 H         1.230371         1.110820         0.499435
 H         0.069082         2.261181        -1.495788
 H        -0.808518         0.723525        -1.963200
 H        -3.658601         3.342361        -1.940005
 H        -2.278996         2.781049        -2.970362
 H        -3.727670         1.283300         0.023943
 H        -2.520388        -0.360280         0.914328
 H        -1.741175        -0.821825        -0.708742
 H        -0.669160         3.139908         0.667794
 H        -2.176442         2.522080         1.408650
