19
Iteration:  3454
 O         0.330772         0.359298         0.765956
 C        -0.755669         1.045747         0.134087
 C        -0.553639         1.676451        -1.263828
 C        -1.963303         2.230463        -0.944310
 C        -3.048918         2.654589        -1.916592
 O        -3.364926         1.265338        -2.031013
 C        -2.940323         1.144607        -0.632621
 C        -2.011663         0.062454        -0.049155
 C        -1.332155         2.523564         0.467613
 H         0.497311         0.678753         1.712176
 H         0.283584         2.377628        -1.280273
 H        -0.357890         0.953260        -2.128806
 H        -3.807223         3.193080        -1.407305
 H        -2.887565         3.221459        -2.859530
 H        -3.894481         1.307467         0.009526
 H        -2.399742        -0.446306         0.769837
 H        -1.700778        -0.758507        -0.773079
 H        -0.535323         3.343704         0.527212
 H        -1.995412         2.668126         1.343729
