19
Iteration:  4351charge 0 multiplicity 1
 O         0.402483         0.459706         0.792590
 C        -0.671696         1.015272         0.127857
 C        -0.613871         1.621287        -1.263950
 C        -2.091944         2.260870        -0.825782
 C        -2.896258         2.660468        -2.018330
 O        -3.451964         1.369331        -2.113512
 C        -2.950941         1.093848        -0.672242
 C        -1.970581         0.021703        -0.033211
 C        -1.439670         2.407420         0.594105
 H         1.133727         1.161728         0.756600
 H         0.183389         2.449788        -1.239348
 H        -0.561146         0.908651        -2.141387
 H        -3.633522         3.377351        -1.665520
 H        -2.451650         3.069251        -2.988643
 H        -3.897862         1.181415         0.003852
 H        -2.256092        -0.413030         0.918332
 H        -1.638797        -0.764197        -0.667553
 H        -0.881644         3.232293         1.045335
 H        -2.201596         2.153399         1.429047
