19
Iteration:  4196
 O         0.326191         0.532760         0.887152
 C        -0.714018         0.998107         0.155363
 C        -0.644514         1.551149        -1.321087
 C        -1.964507         2.284598        -0.864633
 C        -3.022109         2.758777        -1.885847
 O        -3.396062         1.322961        -2.135378
 C        -2.877750         1.062480        -0.679448
 C        -1.958233         0.038971        -0.070686
 C        -1.410122         2.400891         0.526041
 H         1.042025         0.772133         0.308451
 H         0.272767         2.159661        -1.569799
 H        -0.560755         0.846054        -2.138666
 H        -3.815587         3.178537        -1.363771
 H        -2.705886         3.365411        -2.806012
 H        -3.767276         1.203013        -0.069314
 H        -2.384592        -0.131594         0.954364
 H        -1.775104        -0.949117        -0.452717
 H        -0.532181         3.040293         0.636726
 H        -2.175762         2.280629         1.378349
