19
Iteration:  2439charge 0 multiplicity 1
 O         0.427755         0.554378         0.609044
 C        -0.850044         1.004149         0.166121
 C        -0.738747         1.505515        -1.292116
 C        -1.955313         2.239773        -0.850342
 C        -2.793322         2.691743        -2.032560
 O        -3.501752         1.345744        -1.939066
 C        -2.930377         1.096960        -0.629644
 C        -2.016886         0.027013         0.023213
 C        -1.279831         2.521418         0.559026
 H         0.526710        -0.209863         1.251209
 H         0.009455         2.210957        -1.489662
 H        -0.744864         0.786523        -2.090895
 H        -3.697687         3.493669        -2.001551
 H        -2.311852         2.792816        -3.042293
 H        -3.754057         1.418170         0.076614
 H        -2.540710        -0.257351         0.999324
 H        -1.824207        -0.899963        -0.456714
 H        -0.354985         3.115700         0.430843
 H        -1.963244         2.709680         1.498224
