19
Iteration:  4295
 O         0.284765         0.452135         0.874124
 C        -0.709379         1.025827         0.119518
 C        -0.548094         1.593336        -1.363972
 C        -2.003259         2.279862        -0.880568
 C        -3.108762         2.718926        -1.880463
 O        -3.300679         1.233992        -2.103945
 C        -2.888147         1.169362        -0.639817
 C        -2.033833         0.066566        -0.145412
 C        -1.361266         2.419175         0.592743
 H         1.019423         1.023075         0.908757
 H         0.379155         2.315033        -1.564936
 H        -0.648160         0.928273        -2.245630
 H        -3.886695         3.130115        -1.261386
 H        -2.816579         3.169514        -2.903002
 H        -3.785458         1.250789         0.131642
 H        -2.330195        -0.456382         0.835609
 H        -1.757816        -0.733710        -0.813801
 H        -0.583688         3.203786         0.675720
 H        -2.116160         2.504514         1.509719
