19
Iteration:  1919
 O         0.338341         0.273188         0.831998
 C        -0.718912         1.024595         0.049415
 C        -0.656026         1.644161        -1.388227
 C        -1.990489         2.312375        -0.874604
 C        -3.012098         2.673116        -2.002353
 O        -3.413325         1.212050        -1.985599
 C        -2.957356         1.200907        -0.623730
 C        -1.994352         0.127598         0.079327
 C        -1.207448         2.507836         0.452916
 H         0.966693         0.808857         1.421494
 H         0.107918         2.405279        -1.587041
 H        -0.721993         0.948767        -2.254250
 H        -3.821342         3.334628        -1.549214
 H        -2.713826         3.043622        -3.002945
 H        -3.897142         1.498390         0.100144
 H        -2.451352        -0.108227         1.107570
 H        -1.906725        -0.763764        -0.582901
 H        -0.472720         3.253240         0.455325
 H        -2.060998         2.510845         1.256918
