19
Iteration:  1370
 O         0.474032         0.685486         0.863284
 C        -0.734911         0.978929         0.074090
 C        -0.702803         1.579505        -1.296983
 C        -2.032616         2.183648        -0.839961
 C        -2.900285         2.785681        -1.897806
 O        -3.454533         1.383466        -2.157971
 C        -3.003030         1.040933        -0.623377
 C        -1.978652        -0.069919        -0.083371
 C        -1.304326         2.352896         0.513054
 H         0.286733        -0.037659         1.575986
 H         0.026670         2.457805        -1.433671
 H        -0.626599         0.854742        -2.157273
 H        -3.660821         3.538480        -1.650103
 H        -2.290932         3.220078        -2.749287
 H        -3.946872         0.954645         0.135423
 H        -2.355194        -0.498269         0.736235
 H        -1.815055        -0.720297        -0.869719
 H        -0.569654         3.114421         0.818214
 H        -2.090299         2.395575         1.376814
