19
Iteration:   330
 O         0.493583         0.632236         0.668231
 C        -0.833786         0.958036         0.162725
 C        -0.664797         1.615985        -1.264564
 C        -2.071540         2.327947        -0.779977
 C        -2.974340         2.745086        -1.949382
 O        -3.305220         1.339245        -2.110839
 C        -2.906368         1.101794        -0.663073
 C        -1.962905        -0.052238        -0.235539
 C        -1.496110         2.291121         0.766112
 H         0.333773         0.654255         1.609570
 H         0.155627         2.383384        -1.300718
 H        -0.666570         0.946016        -2.169278
 H        -3.869738         3.307069        -1.718450
 H        -2.203981         3.107268        -2.758729
 H        -3.742569         1.212889         0.050079
 H        -2.209917        -0.709059         0.653578
 H        -1.718393        -0.577043        -1.190872
 H        -0.567711         2.835180         1.176036
 H        -2.215548         2.045459         1.507528
