19
Iteration:  1304
 O         0.363251         0.391132         0.701304
 C        -0.684724         0.993280         0.064850
 C        -0.630873         1.726999        -1.204186
 C        -2.001984         2.312569        -0.851506
 C        -3.017237         2.635368        -1.931697
 O        -3.309565         1.175275        -2.020813
 C        -2.914811         1.141335        -0.613161
 C        -2.040711         0.161161        -0.157989
 C        -1.370609         2.446245         0.577350
 H         0.141203         0.196896         1.576343
 H         0.064464         2.626937        -1.229010
 H        -0.357090         1.230635        -2.166496
 H        -3.899713         3.252429        -1.730019
 H        -2.611619         3.068135        -2.876063
 H        -3.880127         1.500261        -0.069525
 H        -2.375819        -0.194555         0.769423
 H        -1.882982        -0.646780        -0.806894
 H        -0.605914         3.253672         0.859059
 H        -2.125541         2.232992         1.396817
