19
Iteration:  3001charge 0 multiplicity 1
 O         0.358383         0.496099         0.714358
 C        -0.781322         1.036619         0.165063
 C        -0.674520         1.510443        -1.303403
 C        -1.964769         2.330140        -0.866443
 C        -2.976283         2.703596        -1.900145
 O        -3.366449         1.291069        -2.102538
 C        -2.881173         1.126488        -0.637135
 C        -2.005791         0.066459        -0.044417
 C        -1.310319         2.479940         0.552546
 H         0.284545        -0.209680         1.357204
 H         0.191989         2.144104        -1.495869
 H        -0.590538         0.691770        -1.985809
 H        -3.824379         3.110359        -1.283480
 H        -2.702921         3.311902        -2.815805
 H        -3.846597         1.331925         0.003524
 H        -2.435519        -0.303643         0.928652
 H        -1.905255        -0.878140        -0.689005
 H        -0.514865         3.249266         0.498926
 H        -2.005029         2.514091         1.313381
