19
Iteration:   468
 O         0.401703         0.524798         0.781967
 C        -0.799918         0.982400         0.160980
 C        -0.654483         1.726728        -1.293471
 C        -1.995817         2.290063        -0.835740
 C        -3.016240         2.758571        -1.909556
 O        -3.346133         1.348667        -2.128768
 C        -2.876259         1.054323        -0.687824
 C        -1.911462         0.011545        -0.091625
 C        -1.473750         2.288953         0.671964
 H         1.118375         0.233201         0.108965
 H         0.145646         2.438633        -1.246031
 H        -0.585622         1.049092        -2.146270
 H        -3.885688         3.373875        -1.402947
 H        -2.530041         3.150953        -2.756209
 H        -3.846202         1.109228        -0.182223
 H        -2.390500        -0.460724         0.717124
 H        -1.583659        -0.855692        -0.664952
 H        -0.776432         2.996338         0.930426
 H        -2.430763         2.238592         1.237153
