19
Iteration:  4346charge 0 multiplicity 1
 O         0.402271         0.489517         0.805097
 C        -0.677924         1.046471         0.097761
 C        -0.609573         1.613155        -1.271389
 C        -2.132152         2.219413        -0.811428
 C        -2.862183         2.695758        -1.983757
 O        -3.457350         1.403746        -2.145487
 C        -2.962234         1.045609        -0.682659
 C        -1.969935        -0.009387        -0.016216
 C        -1.422438         2.421941         0.594773
 H         1.133615         1.102291         0.764218
 H         0.088058         2.402619        -1.322253
 H        -0.591218         0.771817        -1.944325
 H        -3.749109         3.373817        -1.694454
 H        -2.366399         3.003827        -2.893521
 H        -3.709936         1.138633         0.049032
 H        -2.269820        -0.488603         0.993409
 H        -1.734371        -0.873320        -0.730157
 H        -0.781040         3.249352         0.965688
 H        -2.118502         2.227599         1.349984
