19
Iteration:  2411charge 0 multiplicity 1
 O         0.414701         0.449839         0.761605
 C        -0.729597         1.023762         0.089939
 C        -0.644777         1.478799        -1.365550
 C        -1.916176         2.257664        -0.916394
 C        -3.010709         2.696630        -1.984816
 O        -3.439378         1.251746        -1.999363
 C        -2.996342         1.220785        -0.547661
 C        -2.005793         0.142897        -0.033543
 C        -1.260599         2.502331         0.561743
 H         0.235904        -0.117774         1.517193
 H         0.137272         2.307031        -1.607603
 H        -0.636795         0.666779        -2.160006
 H        -3.772512         3.322171        -1.661403
 H        -2.933049         3.047047        -3.039511
 H        -3.785707         1.512235         0.183998
 H        -2.336988        -0.267249         0.912750
 H        -2.032230        -0.700797        -0.808995
 H        -0.403685         3.158350         0.663456
 H        -1.916798         2.568252         1.378704
