19
Iteration:  2380charge 0 multiplicity 1
 O         0.308584         0.376514         0.813470
 C        -0.751902         0.947392         0.094837
 C        -0.634123         1.589305        -1.397518
 C        -1.898749         2.315997        -0.934243
 C        -3.046679         2.745928        -1.911033
 O        -3.485209         1.282200        -1.984502
 C        -2.852984         1.116748        -0.606117
 C        -1.941185         0.029777         0.004434
 C        -1.284941         2.577441         0.408575
 H         0.196139         0.345488         1.805135
 H         0.241381         2.285995        -1.384464
 H        -0.708669         0.936439        -2.267229
 H        -3.946066         3.381227        -1.501103
 H        -2.867618         2.970679        -2.962665
 H        -3.507100         1.380097         0.163629
 H        -2.224527        -0.152771         1.078937
 H        -1.884451        -0.968770        -0.603008
 H        -0.296232         3.175153         0.448834
 H        -1.863791         2.826368         1.266580
