19
Iteration:  3312charge 0 multiplicity 1
 O         0.363346         0.468728         0.722463
 C        -0.789538         0.954511         0.099504
 C        -0.742604         1.586143        -1.273910
 C        -1.946389         2.365285        -0.817871
 C        -3.006018         2.715017        -1.979516
 O        -3.305110         1.251860        -2.094222
 C        -2.924346         1.128032        -0.666673
 C        -1.976046         0.045361        -0.012854
 C        -1.366624         2.426957         0.635715
 H         0.934354         1.285072         0.927899
 H         0.170257         2.142488        -1.213316
 H        -0.811526         0.918093        -2.117215
 H        -3.849643         3.412378        -1.706065
 H        -2.634631         3.182420        -2.940228
 H        -3.789181         1.233692        -0.096790
 H        -2.352824        -0.404841         0.938931
 H        -1.719845        -0.872172        -0.685371
 H        -0.415276         2.946450         0.725240
 H        -2.057242         2.561064         1.519563
