19
Iteration:  1805charge 0 multiplicity 1
 O         0.360774         0.439738         0.791974
 C        -0.747544         1.004843         0.117017
 C        -0.657029         1.648123        -1.345058
 C        -1.990206         2.294261        -0.854698
 C        -2.942014         2.665089        -2.031564
 O        -3.368603         1.202163        -1.938561
 C        -2.975366         1.183813        -0.551626
 C        -2.045943         0.121728        -0.060659
 C        -1.317378         2.485223         0.534407
 H         0.509649        -0.335337         0.151752
 H         0.193546         2.303162        -1.348698
 H        -0.594837         0.971729        -2.160956
 H        -3.624853         3.511312        -1.794019
 H        -2.412784         2.853461        -2.983908
 H        -3.889331         1.507997         0.160446
 H        -2.359223        -0.350202         0.789168
 H        -1.803845        -0.701317        -0.778767
 H        -0.413993         3.219238         0.456523
 H        -1.987860         2.507566         1.390969
