19
Iteration:  1469charge 0 multiplicity 1
 O         0.441293         0.602532         0.745224
 C        -0.729463         1.022398         0.139510
 C        -0.705957         1.580182        -1.268197
 C        -1.993791         2.310705        -0.793574
 C        -2.915013         2.687064        -1.954420
 O        -3.341873         1.266922        -2.091895
 C        -2.976274         1.129458        -0.649721
 C        -2.007310         0.095211        -0.118373
 C        -1.420256         2.316372         0.619518
 H         0.439816        -0.380084         1.042633
 H         0.199598         2.218444        -1.564005
 H        -0.753308         0.850590        -2.119626
 H        -3.672401         3.395757        -1.572483
 H        -2.488694         3.168632        -2.861084
 H        -3.789249         1.294286        -0.004008
 H        -2.337494        -0.333540         0.813600
 H        -1.992889        -0.647760        -0.873557
 H        -0.591325         2.987502         0.737970
 H        -2.235066         2.440086         1.469991
