19
Iteration:   609
 O         0.347167         0.471893         0.801063
 C        -0.728500         1.034462         0.062623
 C        -0.660208         1.686224        -1.333176
 C        -2.053304         2.269445        -0.812745
 C        -2.982372         2.736703        -1.859833
 O        -3.350364         1.302910        -2.067553
 C        -2.942378         1.016395        -0.680362
 C        -1.828678         0.062848        -0.115274
 C        -1.417608         2.453731         0.567003
 H         0.013193        -0.432273         1.136009
 H        -0.045509         2.627979        -1.266008
 H        -0.599348         1.140024        -2.310193
 H        -3.676335         3.311141        -1.388642
 H        -2.640651         3.116467        -2.759695
 H        -3.881223         1.061582        -0.138884
 H        -2.189430        -0.301433         0.822149
 H        -1.467134        -0.809778        -0.631793
 H        -0.523569         2.929296         0.703870
 H        -2.191005         2.442259         1.375673
