19
Iteration:  4430
 O         0.311877         0.489149         0.897121
 C        -0.734715         1.003412         0.139485
 C        -0.704030         1.597230        -1.315313
 C        -2.001674         2.258056        -0.853124
 C        -3.007089         2.751921        -1.908756
 O        -3.412014         1.385919        -2.131959
 C        -2.872560         0.988058        -0.778650
 C        -1.890440        -0.007990        -0.085746
 C        -1.364216         2.433538         0.624098
 H         1.074845         1.137416         0.913784
 H         0.241421         2.104499        -1.456824
 H        -0.800771         0.912952        -2.225008
 H        -3.852115         3.334174        -1.534861
 H        -2.702964         3.124701        -2.860329
 H        -3.739964         1.256375        -0.196783
 H        -2.212322        -0.333958         0.822433
 H        -1.435347        -0.849764        -0.598163
 H        -0.560796         3.225460         0.787698
 H        -2.130870         2.389107         1.462498
