19
Iteration:  2706
 O         0.439803         0.469100         0.757957
 C        -0.744475         0.991327         0.090601
 C        -0.623688         1.629957        -1.339173
 C        -1.962242         2.234815        -0.925037
 C        -2.910738         2.670064        -2.085512
 O        -3.563879         1.358488        -1.906774
 C        -2.981735         1.164127        -0.622283
 C        -2.024779        -0.047355        -0.040619
 C        -1.299223         2.419196         0.570304
 H         0.322205         0.892726         1.652573
 H         0.170338         2.321931        -1.210578
 H        -0.551432         0.957462        -2.146688
 H        -3.542367         3.533238        -1.919699
 H        -2.182010         2.821064        -2.934920
 H        -3.767779         1.502653         0.182004
 H        -2.218178        -0.434065         0.930529
 H        -1.813738        -0.868116        -0.770917
 H        -0.557155         3.336251         0.599509
 H        -1.930584         2.539791         1.437164
