19
Iteration:   704
 O         0.355191         0.427463         0.831115
 C        -0.658841         1.056073         0.133967
 C        -0.595124         1.585265        -1.291567
 C        -2.053173         2.292977        -0.834435
 C        -3.055337         2.735192        -1.900060
 O        -3.485235         1.356482        -2.132988
 C        -2.923877         1.049790        -0.685656
 C        -1.880674         0.036159        -0.102285
 C        -1.357955         2.411666         0.558779
 H         0.890764         0.999215         1.335317
 H        -0.013679         2.425051        -1.464040
 H        -0.514445         0.787066        -2.013571
 H        -3.988569         3.379999        -1.621513
 H        -2.498530         3.090838        -2.853327
 H        -3.792953         1.161990         0.062272
 H        -2.200921        -0.442423         0.807916
 H        -1.581416        -0.784425        -0.796982
 H        -0.589027         3.112866         0.574662
 H        -1.948140         2.314425         1.471552
