19
Iteration:  1750charge 0 multiplicity 1
 O         0.429833         0.586858         0.883038
 C        -0.675414         0.938375         0.110592
 C        -0.685665         1.534977        -1.390944
 C        -1.985771         2.216203        -0.900200
 C        -2.987307         2.764034        -1.867972
 O        -3.457472         1.342885        -2.145105
 C        -2.977673         1.128492        -0.642677
 C        -1.998430         0.045505         0.047025
 C        -1.302793         2.398547         0.444473
 H         0.297634        -0.361849         1.197060
 H         0.074819         2.249822        -1.666880
 H        -0.696318         0.784481        -2.128730
 H        -3.698725         3.405816        -1.324090
 H        -2.496991         3.265688        -2.723131
 H        -3.866375         1.411689         0.013275
 H        -2.355872        -0.145885         0.967275
 H        -1.750535        -0.842000        -0.530428
 H        -0.458123         3.241770         0.633071
 H        -1.862457         2.400825         1.367782
