19
Iteration:  4305
 O         0.316010         0.521405         0.895493
 C        -0.730153         1.016487         0.132583
 C        -0.679054         1.535995        -1.333537
 C        -1.958798         2.336096        -0.868099
 C        -3.091978         2.745432        -1.866240
 O        -3.305253         1.303929        -2.127260
 C        -2.882275         1.073434        -0.663309
 C        -1.997650        -0.070291        -0.132802
 C        -1.337181         2.442420         0.566413
 H         1.069594         1.111845         0.804476
 H         0.195655         2.259682        -1.542473
 H        -0.844813         0.741028        -2.055272
 H        -3.988343         3.319937        -1.540505
 H        -2.706527         3.316070        -2.790452
 H        -3.857494         1.372230        -0.137326
 H        -2.330506        -0.534783         0.875860
 H        -1.713384        -0.832560        -0.879459
 H        -0.512656         3.131599         0.699179
 H        -1.970913         2.545848         1.476587
