19
Iteration:  3618
 O         0.407694         0.465264         0.829035
 C        -0.717098         1.023200         0.151547
 C        -0.691518         1.501448        -1.293515
 C        -1.931688         2.242275        -0.917734
 C        -2.843773         2.675943        -2.086469
 O        -3.522142         1.313166        -1.945173
 C        -3.005656         1.180658        -0.576108
 C        -2.040882         0.012624        -0.038317
 C        -1.350284         2.483586         0.477361
 H         1.070178         1.138953         0.991362
 H         0.145562         2.192143        -1.452300
 H        -0.577975         0.799117        -2.211026
 H        -3.656461         3.520331        -1.865349
 H        -2.446629         2.922564        -3.173217
 H        -3.792693         1.394107         0.100955
 H        -2.232754        -0.434413         0.858429
 H        -1.612104        -0.790985        -0.673077
 H        -0.624813         3.315843         0.684363
 H        -2.090472         2.639156         1.224079
