19
Iteration:  3045
 O         0.460477         0.532540         0.837224
 C        -0.669134         1.024173         0.121768
 C        -0.617637         1.502600        -1.314053
 C        -1.941387         2.137599        -0.867463
 C        -2.895545         2.779509        -1.998650
 O        -3.552160         1.382439        -2.037942
 C        -3.016083         1.097687        -0.659108
 C        -2.024594         0.082105        -0.087407
 C        -1.363288         2.341367         0.593979
 H         0.453680         1.190091         1.521536
 H         0.227325         2.071903        -1.653623
 H        -0.889233         0.896306        -2.152024
 H        -3.657315         3.481847        -1.570487
 H        -2.449108         3.003795        -3.020504
 H        -3.851877         1.458352         0.065708
 H        -2.363545        -0.585786         0.644613
 H        -1.599926        -0.615360        -0.870735
 H        -0.620742         3.171930         0.647688
 H        -2.063083         2.299612         1.353037
