19
Iteration:  3787
 O         0.378284         0.539759         0.964370
 C        -0.715582         0.982626         0.133869
 C        -0.722151         1.549141        -1.375472
 C        -1.956028         2.285857        -0.911443
 C        -2.991829         2.732336        -1.981863
 O        -3.419575         1.227070        -2.048064
 C        -2.950933         1.140322        -0.650224
 C        -1.982383         0.075581        -0.031436
 C        -1.266802         2.470598         0.452109
 H         0.339849        -0.447379         0.821072
 H        -0.004651         2.333386        -1.628146
 H        -0.885366         0.817648        -2.142416
 H        -3.804916         3.403990        -1.501295
 H        -2.486996         3.101772        -2.840769
 H        -3.713615         1.388821         0.096162
 H        -2.257229        -0.286655         0.921265
 H        -1.753624        -0.684604        -0.707190
 H        -0.521833         3.248495         0.496283
 H        -1.833728         2.614578         1.422136
