19
Iteration:   374
 O         0.354696         0.437074         0.818584
 C        -0.652150         0.987624         0.103514
 C        -0.551831         1.761864        -1.230998
 C        -2.014160         2.216180        -0.837743
 C        -3.106066         2.765661        -1.874512
 O        -3.438522         1.359388        -2.161760
 C        -2.871126         1.024777        -0.686713
 C        -1.834752         0.045733        -0.192397
 C        -1.452673         2.379414         0.619658
 H        -0.038883        -0.211948         1.419361
 H         0.069625         2.709434        -1.209868
 H        -0.197961         1.164168        -2.123856
 H        -3.898708         3.207523        -1.273202
 H        -2.993760         3.266163        -2.946503
 H        -3.683975         1.126333         0.062583
 H        -2.173419        -0.590156         0.702355
 H        -1.517067        -0.813696        -0.844318
 H        -0.859160         3.403946         0.658328
 H        -2.180362         2.415792         1.450112
