19
Iteration:  1530
 O         0.267937         0.435506         0.971611
 C        -0.667354         1.062883         0.121754
 C        -0.596222         1.569772        -1.357576
 C        -1.932090         2.297450        -0.934326
 C        -3.013345         2.749184        -1.907644
 O        -3.439954         1.325971        -2.013833
 C        -2.903312         1.050357        -0.651064
 C        -1.952600         0.063709        -0.142564
 C        -1.358200         2.423427         0.524109
 H         1.129464         0.217814         0.445000
 H         0.159254         2.326421        -1.497634
 H        -0.778670         0.882465        -2.143468
 H        -3.865928         3.348024        -1.517752
 H        -2.723365         3.145561        -2.901001
 H        -3.978674         1.241305        -0.114678
 H        -2.306439        -0.554523         0.770064
 H        -1.671470        -0.744776        -0.927188
 H        -0.749199         3.420022         0.589382
 H        -1.999405         2.527194         1.371696
