19
Iteration:  1430
 O         0.381659         0.286445         0.719364
 C        -0.712112         0.996262         0.106406
 C        -0.569959         1.840156        -1.225927
 C        -2.030484         2.280635        -0.823329
 C        -2.988788         2.664072        -1.938433
 O        -3.366173         1.221874        -2.053333
 C        -2.921389         1.086878        -0.629432
 C        -1.952283         0.089669        -0.137899
 C        -1.439502         2.576204         0.560130
 H         0.064018         0.088071         1.595282
 H         0.195522         2.559045        -1.152950
 H        -0.549582         1.196281        -2.100355
 H        -3.894079         3.207069        -1.626771
 H        -2.632360         2.881111        -2.929309
 H        -3.853305         1.326220        -0.040946
 H        -2.370245        -0.351654         0.879197
 H        -1.778200        -0.812786        -0.841442
 H        -0.555530         3.267036         0.478255
 H        -2.106293         2.689066         1.360284
