19
Iteration:  1259
 O         0.511507         0.627914         0.717378
 C        -0.802262         1.006507         0.181680
 C        -0.667571         1.507448        -1.240266
 C        -2.010141         2.277419        -0.794955
 C        -2.867834         2.796959        -1.917761
 O        -3.458725         1.334938        -2.099658
 C        -3.003384         1.058532        -0.714731
 C        -1.959487        -0.055732        -0.114721
 C        -1.408094         2.400397         0.570362
 H         0.326416         0.369184         1.613107
 H         0.241928         2.127557        -1.447374
 H        -0.649088         0.715996        -2.048909
 H        -3.622032         3.523719        -1.610256
 H        -2.372702         3.234134        -2.814681
 H        -3.976995         1.132647        -0.106927
 H        -2.390510        -0.403324         0.787951
 H        -1.697888        -0.979362        -0.633307
 H        -0.526165         3.166455         0.601999
 H        -2.162710         2.410144         1.354279
