19
Iteration:   931
 O         0.362928         0.395896         0.735662
 C        -0.750792         1.003065         0.109607
 C        -0.701581         1.619133        -1.347337
 C        -1.999461         2.314999        -0.819043
 C        -2.900284         2.701351        -1.948912
 O        -3.428163         1.263397        -1.999349
 C        -2.909372         1.112128        -0.634764
 C        -1.937344         0.122403        -0.048735
 C        -1.379202         2.424417         0.542865
 H         0.611851         1.045647         1.418960
 H         0.093150         2.310189        -1.278675
 H        -0.836309         0.952097        -2.215653
 H        -3.907035         3.261223        -1.845596
 H        -2.393753         2.958897        -2.898894
 H        -3.776260         1.349194         0.023476
 H        -2.377893        -0.414357         0.782802
 H        -1.510737        -0.598556        -0.701530
 H        -0.493413         3.120516         0.535263
 H        -2.043046         2.484862         1.374633
