19
Iteration:    93charge 0 multiplicity 1
 O         0.553200         0.649801         0.780737
 C        -0.780757         0.984277         0.178901
 C        -0.727970         1.616693        -1.160268
 C        -2.063327         2.278388        -0.781472
 C        -2.979644         2.799064        -1.946220
 O        -3.405373         1.308831        -2.089330
 C        -2.934814         1.031243        -0.739780
 C        -1.944237        -0.056565        -0.217141
 C        -1.457591         2.365785         0.626673
 H         0.573779        -0.292457         0.673500
 H         0.102215         2.359771        -1.192364
 H        -0.551179         1.097131        -2.137211
 H        -3.897990         3.353617        -1.778106
 H        -2.479944         3.133768        -2.872918
 H        -3.822381         1.277630        -0.132866
 H        -2.311498        -0.658641         0.640331
 H        -1.490494        -0.699625        -0.967318
 H        -0.505321         3.074414         0.705327
 H        -1.935046         2.392538         1.694074
