19
Iteration:    69
 O         0.331076         0.615928         0.957491
 C        -0.690370         1.023853         0.038687
 C        -0.649301         1.700827        -1.404426
 C        -1.939164         2.316727        -0.808551
 C        -2.979329         2.670667        -1.898950
 O        -3.445855         1.323542        -2.032893
 C        -2.912461         1.074184        -0.651568
 C        -1.931099        -0.003779        -0.217883
 C        -1.439661         2.234537         0.641516
 H         1.089995         0.327567         0.334924
 H         0.160165         2.442902        -1.562184
 H        -0.704145         1.154505        -2.386197
 H        -3.803423         3.290626        -1.623383
 H        -2.577735         3.025355        -2.902075
 H        -3.772828         1.315372        -0.044178
 H        -2.126559        -0.520017         0.694153
 H        -1.717274        -0.710705        -1.021532
 H        -0.664755         3.015075         1.085760
 H        -2.167199         2.023891         1.476058
