19
Iteration:   100
 O         0.506695         0.622408         0.683239
 C        -0.811096         1.068809         0.200170
 C        -0.659400         1.635846        -1.179400
 C        -2.034169         2.280837        -0.739445
 C        -2.954332         2.732665        -1.878062
 O        -3.406426         1.311948        -2.133691
 C        -2.954620         0.997188        -0.794808
 C        -1.949542        -0.057608        -0.178887
 C        -1.450423         2.409011         0.681367
 H         0.414995        -0.294680         0.834508
 H         0.162821         2.353151        -1.068772
 H        -0.642469         0.994480        -2.105099
 H        -3.858170         3.287269        -1.637402
 H        -2.385426         3.093215        -2.798708
 H        -3.830788         1.002892        -0.124235
 H        -2.299258        -0.577521         0.681416
 H        -1.491099        -0.747683        -0.906934
 H        -0.600737         3.121860         0.614180
 H        -1.923629         2.620151         1.604964
