19
Iteration:   315
 O         0.490588         0.618822         0.647385
 C        -0.706360         0.982074         0.090553
 C        -0.649567         1.709817        -1.195116
 C        -1.977057         2.312372        -0.721475
 C        -2.943012         2.759328        -1.913959
 O        -3.292158         1.288182        -2.097423
 C        -3.004112         1.084793        -0.720847
 C        -2.025439        -0.005056        -0.160229
 C        -1.498961         2.191912         0.669106
 H         0.488132         0.484762         1.581400
 H         0.162271         2.380613        -1.105843
 H        -0.738778         1.143795        -2.093220
 H        -3.867655         3.349087        -1.633418
 H        -2.587343         3.105723        -2.802716
 H        -3.958840         1.273684        -0.217413
 H        -2.523817        -0.464983         0.702247
 H        -1.723336        -0.763960        -0.918585
 H        -0.956484         3.086928         0.896808
 H        -2.414177         2.067128         1.427657
