19
Iteration:  2694
 O         0.476879         0.528048         0.716950
 C        -0.659596         1.002985         0.150028
 C        -0.679697         1.551834        -1.247799
 C        -1.955824         2.276927        -0.857123
 C        -2.831999         2.641034        -2.019327
 O        -3.561731         1.394632        -1.949263
 C        -2.949823         1.177831        -0.576646
 C        -2.056553        -0.030275        -0.085364
 C        -1.403949         2.376958         0.460297
 H         0.533641         0.657724         1.705732
 H         0.029168         2.311910        -1.463410
 H        -0.697020         0.956070        -2.110523
 H        -3.593811         3.400830        -2.042322
 H        -2.341988         2.684913        -3.032966
 H        -3.740871         1.587421         0.198427
 H        -2.449633        -0.450285         0.846935
 H        -1.902776        -0.896087        -0.800007
 H        -0.503640         3.148151         0.482736
 H        -2.138866         2.465435         1.265066
