19
Iteration:  1412charge 0 multiplicity 1
 O         0.373985         0.405005         0.700332
 C        -0.716255         1.012395         0.165202
 C        -0.588335         1.606341        -1.261420
 C        -1.955948         2.338095        -0.866732
 C        -2.994744         2.686041        -1.937492
 O        -3.398778         1.247981        -2.044330
 C        -2.902178         1.124899        -0.668356
 C        -1.955801         0.062468        -0.118145
 C        -1.466669         2.500125         0.554628
 H         0.198743         0.334980         1.620596
 H         0.098996         2.497208        -1.057195
 H        -0.408012         0.965724        -2.169561
 H        -3.783209         3.222774        -1.377187
 H        -2.672003         3.194632        -2.885177
 H        -3.685060         1.388009         0.026160
 H        -2.247286        -0.578658         0.758439
 H        -1.664377        -0.612076        -0.961056
 H        -0.863943         3.357376         0.962761
 H        -2.226685         2.408209         1.384944
