19
Iteration:  4259charge 0 multiplicity 1
 O         0.283396         0.297080         0.764340
 C        -0.788052         1.059410         0.140739
 C        -0.530545         1.761302        -1.300915
 C        -1.991960         2.283041        -0.819879
 C        -2.963955         2.658504        -2.101950
 O        -3.495286         1.267757        -1.985468
 C        -2.834745         1.064549        -0.643715
 C        -1.865922         0.027596        -0.062341
 C        -1.440679         2.523279         0.622138
 H         0.982291         0.864531         1.013171
 H         0.251117         2.559148        -1.238712
 H        -0.576770         1.094242        -2.189555
 H        -3.827089         3.435099        -1.975281
 H        -2.596337         2.959700        -3.087747
 H        -3.644789         1.322268         0.151207
 H        -2.454413        -0.384355         0.817624
 H        -1.562079        -0.795726        -0.815542
 H        -0.715404         3.317454         0.644806
 H        -2.094606         2.641191         1.432874
