19
Iteration:  2731
 O         0.314421         0.379613         0.779603
 C        -0.711183         1.070177         0.143939
 C        -0.636006         1.554169        -1.298186
 C        -1.905912         2.329702        -0.927506
 C        -3.037953         2.636440        -1.942428
 O        -3.517907         1.274642        -1.970110
 C        -2.900285         1.204599        -0.667032
 C        -1.934895         0.094690        -0.093581
 C        -1.279488         2.414609         0.478669
 H         0.391903         0.716759         1.730927
 H         0.234254         2.248459        -1.413420
 H        -0.789793         0.714325        -2.036765
 H        -3.814638         3.351941        -1.532791
 H        -2.523976         3.088930        -2.841895
 H        -3.646440         1.469052         0.044486
 H        -2.225336        -0.234121         0.832526
 H        -1.682696        -0.687714        -0.760040
 H        -0.511508         3.188670         0.572424
 H        -1.924016         2.611281         1.341996
