19
Iteration:  3443charge 0 multiplicity 1
 O         0.313834         0.398440         0.800627
 C        -0.729449         1.066413         0.156587
 C        -0.583950         1.564118        -1.309359
 C        -1.965420         2.277815        -0.839982
 C        -3.032274         2.709147        -1.896925
 O        -3.463577         1.305935        -2.135538
 C        -2.879016         1.040897        -0.622345
 C        -1.959211         0.049660        -0.054827
 C        -1.349736         2.518317         0.473797
 H         0.515652         0.810908         1.684275
 H         0.118523         2.405620        -1.311458
 H        -0.509600         0.809090        -2.168003
 H        -3.808656         3.257568        -1.493449
 H        -2.582374         3.067450        -2.865359
 H        -3.642973         1.505192         0.120734
 H        -2.233178        -0.424648         0.822607
 H        -1.584330        -0.667125        -0.849256
 H        -0.515430         3.273436         0.368827
 H        -1.990789         2.564196         1.381721
