19
Iteration:  3690charge 0 multiplicity 1
 O         0.218241         0.299238         0.773791
 C        -0.763847         1.073380         0.156858
 C        -0.663415         1.553266        -1.307359
 C        -1.989426         2.312787        -0.867456
 C        -2.999922         2.683247        -1.935264
 O        -3.329677         1.245820        -2.042804
 C        -2.937910         1.068409        -0.626528
 C        -1.937323         0.039040         0.016471
 C        -1.238380         2.695790         0.405024
 H         0.832394         0.979075         1.176335
 H         0.250387         2.152211        -1.521042
 H        -0.833353         0.787072        -2.058821
 H        -3.879729         3.279868        -1.633259
 H        -2.711121         2.990209        -2.906648
 H        -3.817510         1.294878         0.036236
 H        -2.456926        -0.205591         1.071151
 H        -1.643082        -0.863328        -0.523476
 H        -0.392031         3.379630         0.409801
 H        -1.818851         2.958698         1.371272
