19
Iteration:   997
 O         0.462526         0.606456         0.756880
 C        -0.737070         0.978713         0.075459
 C        -0.653044         1.510884        -1.379834
 C        -1.961929         2.251366        -0.850144
 C        -2.965168         2.687747        -1.939875
 O        -3.360924         1.336490        -2.007712
 C        -2.978674         1.107057        -0.637905
 C        -2.044432         0.039797        -0.052026
 C        -1.383675         2.411002         0.557625
 H         0.098495         0.200260         1.582620
 H         0.025860         2.300090        -1.555306
 H        -0.861960         0.877310        -2.236040
 H        -3.738690         3.327527        -1.484404
 H        -2.433830         3.152638        -2.767858
 H        -3.786346         1.283265         0.214954
 H        -2.467285        -0.297004         0.855430
 H        -1.787272        -0.720886        -0.717117
 H        -0.505493         3.077370         0.714453
 H        -2.085962         2.471671         1.341860
