19
Iteration:  4114
 O         0.456678         0.500310         0.722260
 C        -0.687082         0.942836         0.105394
 C        -0.629981         1.622905        -1.272108
 C        -1.950062         2.301684        -0.809989
 C        -2.911730         2.674477        -2.096751
 O        -3.512176         1.285221        -2.004433
 C        -2.958644         1.154187        -0.660341
 C        -1.979373         0.075502        -0.084498
 C        -1.514258         2.369022         0.640582
 H         0.807168         1.167442         1.408342
 H         0.193629         2.338593        -1.198626
 H        -0.605917         0.806230        -2.026602
 H        -3.701041         3.510934        -1.921167
 H        -2.313929         2.654940        -3.006138
 H        -3.732814         1.482454         0.154321
 H        -2.179310        -0.307553         0.942666
 H        -1.721668        -0.808110        -0.845364
 H        -0.747715         3.102969         0.859811
 H        -2.153733         2.387395         1.495035
