19
Iteration:  3410
 O         0.418855         0.614913         0.923132
 C        -0.709401         0.968426         0.144766
 C        -0.693614         1.514184        -1.386014
 C        -1.994107         2.255418        -0.879737
 C        -2.912752         2.749737        -1.959889
 O        -3.465086         1.438191        -2.014396
 C        -2.923329         1.049542        -0.690332
 C        -2.008713        -0.064665        -0.114201
 C        -1.364387         2.289698         0.525539
 H         0.699789         1.512721         1.320707
 H         0.032945         2.326937        -1.549276
 H        -0.759913         0.962892        -2.360789
 H        -3.642454         3.483816        -1.815420
 H        -2.472337         2.960264        -2.968135
 H        -3.707934         1.314628         0.130014
 H        -2.370666        -0.465141         0.799306
 H        -1.709443        -0.975353        -0.726808
 H        -0.662074         3.114690         0.755636
 H        -2.006192         2.360115         1.417283
