19
Iteration:  1060
 O         0.377132         0.414227         0.753856
 C        -0.724704         1.023105         0.089327
 C        -0.547390         1.656284        -1.327503
 C        -1.965268         2.288613        -0.888729
 C        -2.933889         2.724724        -1.971434
 O        -3.494044         1.155143        -1.922960
 C        -2.880009         1.195127        -0.623244
 C        -1.974067         0.113218        -0.126558
 C        -1.440774         2.470818         0.539774
 H         0.009181        -0.061287         1.604607
 H         0.241254         2.427952        -1.332276
 H        -0.567750         1.018960        -2.226512
 H        -3.821688         3.240419        -1.638578
 H        -2.559962         3.049703        -2.911458
 H        -3.652574         1.573072         0.010218
 H        -2.233446        -0.329688         0.929654
 H        -1.776852        -0.633492        -0.990733
 H        -0.587428         3.054558         0.846841
 H        -2.197719         2.478814         1.332652
