19
Iteration:  4358
 O         0.408750         0.428757         0.780321
 C        -0.731249         0.996355         0.161583
 C        -0.633041         1.638404        -1.252987
 C        -1.942790         2.312698        -0.847456
 C        -2.953876         2.676188        -2.046674
 O        -3.440473         1.288788        -2.067977
 C        -2.960970         1.116746        -0.656179
 C        -1.936380         0.083822        -0.071950
 C        -1.482747         2.364621         0.630069
 H         1.095828         1.104924         0.776859
 H         0.122516         2.415035        -1.285201
 H        -0.525512         1.203332        -2.220287
 H        -3.702446         3.474094        -1.723114
 H        -2.477162         3.029132        -2.990578
 H        -3.888144         1.303915        -0.164005
 H        -2.381798        -0.329392         0.924733
 H        -1.592718        -0.761172        -0.721159
 H        -0.861371         3.214411         0.869310
 H        -2.203677         2.185594         1.361257
