19
Iteration:   637charge 0 multiplicity 1
 O         0.415146         0.485924         0.814523
 C        -0.730620         1.062778         0.143670
 C        -0.675324         1.720609        -1.247737
 C        -2.027838         2.348192        -0.820250
 C        -3.051021         2.698517        -1.934022
 O        -3.365547         1.194386        -2.106175
 C        -2.883825         1.115081        -0.697192
 C        -1.991832         0.026074        -0.127622
 C        -1.327854         2.405391         0.638997
 H         0.554365        -0.363104         0.238189
 H         0.025752         2.506299        -1.291885
 H        -0.769169         1.062596        -2.104405
 H        -3.882822         3.401017        -1.462829
 H        -2.612934         3.086446        -2.945747
 H        -3.835866         1.413189        -0.182944
 H        -2.507757        -0.452959         0.758690
 H        -1.674083        -0.728903        -0.900772
 H        -0.367799         2.970926         0.882055
 H        -2.071848         2.297471         1.430949
