19
Iteration:  1453charge 0 multiplicity 1
 O         0.345961         0.456659         0.690430
 C        -0.802059         1.042454         0.128473
 C        -0.690879         1.680787        -1.254744
 C        -2.002190         2.335468        -0.832813
 C        -2.989627         2.687394        -2.015925
 O        -3.336901         1.256838        -2.045457
 C        -2.886477         1.119734        -0.671377
 C        -1.922012         0.055112        -0.071565
 C        -1.345464         2.440538         0.681431
 H         0.031256        -0.319484         1.201536
 H         0.118715         2.398495        -1.245562
 H        -0.753795         1.048945        -2.143057
 H        -3.933023         3.214251        -1.821753
 H        -2.502857         2.931249        -2.965874
 H        -3.806956         1.313564        -0.040585
 H        -2.370300        -0.483970         0.883420
 H        -1.390970        -0.745173        -0.739449
 H        -0.533007         3.223585         0.713746
 H        -1.948861         2.265330         1.493855
