19
Iteration:  3172
 O         0.420621         0.504294         0.778036
 C        -0.673763         0.998294         0.164073
 C        -0.682227         1.462477        -1.294558
 C        -2.007241         2.258660        -0.821506
 C        -2.897219         2.760174        -1.990323
 O        -3.434773         1.371872        -2.129410
 C        -2.984755         1.079415        -0.630042
 C        -2.030297         0.082743         0.007233
 C        -1.373040         2.393751         0.579910
 H         1.106711         1.195200         0.473833
 H         0.104047         2.147035        -1.644393
 H        -0.933438         0.582518        -1.937018
 H        -3.700379         3.488545        -1.953163
 H        -2.371331         3.118377        -2.817134
 H        -3.992710         1.251742        -0.062397
 H        -2.341107        -0.334067         0.951124
 H        -1.774254        -0.814329        -0.673853
 H        -0.640537         3.230821         0.909091
 H        -2.061155         2.283162         1.420829
