19
Iteration:  2742
 O         0.366412         0.341660         0.822432
 C        -0.784278         1.001226         0.094536
 C        -0.626312         1.551937        -1.382359
 C        -1.945475         2.267851        -0.949463
 C        -3.059719         2.743540        -1.912032
 O        -3.409266         1.268048        -1.983192
 C        -2.879637         1.156708        -0.621524
 C        -1.985290         0.074113        -0.049502
 C        -1.302784         2.580241         0.515425
 H         0.322593         0.661869         1.726234
 H         0.302531         2.131905        -1.631382
 H        -0.578751         0.746883        -2.190087
 H        -3.882737         3.321664        -1.358885
 H        -2.912628         3.121696        -2.995148
 H        -3.595510         1.550412         0.106977
 H        -2.303182        -0.456997         0.766200
 H        -1.697656        -0.666689        -0.742001
 H        -0.561786         3.369202         0.420122
 H        -2.016542         2.545971         1.348850
