19
Iteration:  1799
 O         0.321707         0.456493         0.767455
 C        -0.764180         1.026561         0.120488
 C        -0.647737         1.599933        -1.362194
 C        -1.982632         2.267680        -0.822400
 C        -2.931237         2.683520        -2.003989
 O        -3.364567         1.182464        -1.980960
 C        -2.963978         1.176900        -0.569987
 C        -2.047703         0.141973        -0.048421
 C        -1.275460         2.492710         0.571047
 H         0.343902        -0.313838         0.220875
 H         0.224283         2.308184        -1.411016
 H        -0.575583         0.914252        -2.276923
 H        -3.795423         3.249189        -1.576375
 H        -2.541726         2.911325        -3.008491
 H        -3.726222         1.505814         0.028737
 H        -2.255415        -0.332555         1.041694
 H        -1.774299        -0.410071        -0.959041
 H        -0.493407         3.148842         0.517769
 H        -1.978953         2.717698         1.453230
