19
Iteration:   758
 O         0.385188         0.515220         0.748784
 C        -0.742867         0.992968         0.143991
 C        -0.622543         1.620217        -1.298960
 C        -1.948178         2.260420        -0.857533
 C        -3.012398         2.779996        -1.990242
 O        -3.429481         1.246926        -1.993930
 C        -2.946687         1.094638        -0.661633
 C        -1.938205         0.059084        -0.132898
 C        -1.359854         2.411097         0.604489
 H         0.167036         0.080340         1.581423
 H         0.143811         2.306496        -1.331471
 H        -0.589572         1.095887        -2.219469
 H        -3.792897         3.389145        -1.602392
 H        -2.876339         3.044982        -3.044477
 H        -3.805994         1.489227        -0.048458
 H        -2.304207        -0.458880         0.751952
 H        -1.511527        -0.619661        -0.924959
 H        -0.592548         3.127465         0.800719
 H        -1.890656         2.324373         1.491320
