19
Iteration:  4533charge 0 multiplicity 1
 O         0.297517         0.390452         0.851064
 C        -0.760773         0.975402         0.097799
 C        -0.602598         1.692241        -1.252649
 C        -2.001949         2.345597        -0.915134
 C        -3.089172         2.716535        -1.917612
 O        -3.298724         1.230527        -2.103052
 C        -2.828269         1.091126        -0.672188
 C        -1.957767         0.098561        -0.074724
 C        -1.414055         2.417329         0.583025
 H         1.056688         0.931851         0.751997
 H         0.199018         2.489531        -1.094759
 H        -0.563519         1.091827        -2.155638
 H        -3.967047         3.129652        -1.440926
 H        -2.876703         3.159880        -2.890987
 H        -3.801310         1.287054        -0.127271
 H        -2.324232        -0.546812         0.811967
 H        -1.730622        -0.617385        -0.881157
 H        -0.603329         3.280207         0.648146
 H        -2.126572         2.403832         1.449240
