19
Iteration:    31
 O         0.410291         0.301202         0.873641
 C        -0.759322         1.008926         0.174907
 C        -0.566654         1.714643        -1.253030
 C        -1.974758         2.259568        -0.912004
 C        -3.153844         2.667505        -1.878762
 O        -3.459622         1.353625        -2.069061
 C        -2.913524         1.062641        -0.700988
 C        -1.851714        -0.027153        -0.192430
 C        -1.441495         2.593359         0.483556
 H         1.030160         0.897785         1.302549
 H         0.231350         2.486682        -1.307927
 H        -0.426791         1.067753        -2.107650
 H        -3.902123         3.207490        -1.170690
 H        -2.882940         3.142675        -2.797056
 H        -3.595156         1.245917         0.152060
 H        -2.192386        -0.764149         0.615291
 H        -1.432456        -0.536337        -1.085898
 H        -0.695187         3.291577         0.681105
 H        -2.028067         2.715777         1.407485
