19
Iteration:  2085charge 0 multiplicity 1
 O         0.545633         0.542337         0.676037
 C        -0.726679         0.977364         0.094929
 C        -0.723822         1.529530        -1.312827
 C        -1.993152         2.262419        -0.864128
 C        -2.824690         2.633469        -2.094665
 O        -3.500658         1.367312        -1.981549
 C        -2.969028         1.215187        -0.538282
 C        -2.064355         0.055288         0.037368
 C        -1.383504         2.349533         0.595802
 H         0.400766         0.627250         1.651179
 H         0.069780         2.207620        -1.655008
 H        -1.005023         0.939123        -2.155641
 H        -3.541309         3.477685        -2.183569
 H        -2.275956         2.742223        -3.005299
 H        -3.728997         1.416997         0.121972
 H        -2.319787        -0.332293         0.991071
 H        -1.953596        -0.843557        -0.661390
 H        -0.568705         3.180862         0.594979
 H        -2.182694         2.353226         1.391634
