19
Iteration:  3111charge 0 multiplicity 1
 O         0.278451         0.311554         0.842811
 C        -0.712449         1.038453         0.170521
 C        -0.605465         1.622418        -1.251784
 C        -1.948826         2.298344        -0.916332
 C        -3.038943         2.691361        -1.954769
 O        -3.391323         1.246503        -2.041249
 C        -2.948364         1.147566        -0.693862
 C        -1.943895         0.220980        -0.058234
 C        -1.345940         2.441551         0.543836
 H         1.136675         0.300891         0.319692
 H         0.140093         2.360213        -1.599675
 H        -0.696372         0.876427        -2.078327
 H        -3.906028         3.181781        -1.414801
 H        -2.774934         3.010854        -3.034285
 H        -3.784548         1.447401        -0.012256
 H        -2.234508        -0.276114         0.861783
 H        -1.612924        -0.565113        -0.752015
 H        -0.625747         3.304928         0.588329
 H        -1.925972         2.490985         1.451082
