19
Iteration:  3937
 O         0.307607         0.354280         0.871035
 C        -0.698099         1.074109         0.128698
 C        -0.642567         1.575057        -1.399785
 C        -1.950359         2.320625        -0.936426
 C        -3.039121         2.696654        -1.902373
 O        -3.432217         1.228360        -2.078104
 C        -2.871038         1.082510        -0.626596
 C        -1.967972         0.074399        -0.018116
 C        -1.286949         2.610063         0.472262
 H         0.280563         0.670398         1.834500
 H         0.237738         2.283386        -1.709703
 H        -0.793091         0.832257        -2.190909
 H        -3.889945         3.140592        -1.524479
 H        -2.980555         3.230354        -2.861013
 H        -3.629097         1.281419         0.041813
 H        -2.276352        -0.383221         1.035005
 H        -1.626422        -0.980128        -0.458292
 H        -0.505115         3.324592         0.396741
 H        -1.961626         2.667162         1.353187
