19
Iteration:  2392charge 0 multiplicity 1
 O         0.273633         0.397641         0.765210
 C        -0.723168         1.071631         0.071893
 C        -0.598478         1.562612        -1.346648
 C        -1.913545         2.326066        -0.935918
 C        -3.061543         2.648768        -1.881930
 O        -3.484611         1.241272        -1.967036
 C        -2.863827         1.163310        -0.651354
 C        -1.974794         0.153860         0.014254
 C        -1.203550         2.429981         0.452232
 H        -0.141219         0.351358         1.605693
 H         0.280126         2.174881        -1.536472
 H        -0.719951         0.875356        -2.152893
 H        -3.855219         3.402813        -1.389372
 H        -2.720136         3.069161        -2.820606
 H        -3.675380         1.482643        -0.043224
 H        -2.523716        -0.221900         0.932274
 H        -1.588936        -0.776510        -0.533772
 H        -0.387206         3.259480         0.379663
 H        -1.837882         2.476080         1.334380
