19
Iteration:  2417
 O         0.477193         0.472242         0.743038
 C        -0.731131         0.972990         0.113582
 C        -0.668989         1.493707        -1.313116
 C        -1.927727         2.312906        -0.918874
 C        -3.005337         2.696188        -2.002057
 O        -3.439233         1.268219        -1.996507
 C        -2.966401         1.224010        -0.506674
 C        -2.019075         0.083231        -0.016772
 C        -1.291734         2.490473         0.502374
 H         0.114066        -0.151379         1.371210
 H         0.129688         2.134309        -1.542743
 H        -0.824500         0.838248        -2.158109
 H        -3.779255         3.556241        -1.674329
 H        -2.619792         2.895779        -3.031594
 H        -3.923418         1.516861        -0.006323
 H        -2.526457        -0.397748         0.864471
 H        -1.961067        -0.709526        -0.718624
 H        -0.426762         3.187873         0.511765
 H        -2.068431         2.596520         1.359901
