19
Iteration:  3415
 O         0.421081         0.584148         0.930347
 C        -0.724999         1.005714         0.159807
 C        -0.727595         1.527817        -1.403166
 C        -1.974411         2.265200        -0.848781
 C        -2.913911         2.762818        -2.020060
 O        -3.453163         1.449798        -1.989672
 C        -2.966392         1.016433        -0.721318
 C        -1.963356        -0.055335        -0.123685
 C        -1.363679         2.307105         0.510704
 H         0.644217         1.360127         1.417626
 H         0.084730         2.251480        -1.569429
 H        -0.800472         0.829251        -2.234474
 H        -3.747355         3.452304        -1.518813
 H        -2.521393         2.887934        -3.019970
 H        -3.629981         1.229765         0.062901
 H        -2.451347        -0.384184         0.860158
 H        -1.517734        -0.960894        -0.648930
 H        -0.632944         3.123400         0.710414
 H        -1.916452         2.307188         1.468378
