19
Iteration:   441charge 0 multiplicity 1
 O         0.433609         0.577881         0.828341
 C        -0.727387         0.995784         0.131928
 C        -0.709962         1.724783        -1.261067
 C        -2.105983         2.186745        -0.723930
 C        -2.934975         2.790560        -1.930141
 O        -3.448406         1.338418        -2.145051
 C        -2.941046         1.032191        -0.758432
 C        -1.884275         0.003088        -0.174339
 C        -1.385167         2.320155         0.718450
 H         0.932469        -0.272551         0.613402
 H         0.040440         2.564359        -1.430648
 H        -0.652422         1.014743        -2.134001
 H        -3.702350         3.533859        -1.835750
 H        -2.131196         3.118545        -2.731272
 H        -3.918600         1.043837        -0.264881
 H        -2.369117        -0.617025         0.658741
 H        -1.593591        -0.760493        -0.927752
 H        -0.694737         3.286606         0.727673
 H        -2.025143         2.388066         1.587961
