19
Iteration:   287
 O         0.417490         0.445691         0.668694
 C        -0.737550         1.026078         0.129636
 C        -0.622346         1.796347        -1.203830
 C        -2.045906         2.327481        -0.742788
 C        -3.088018         2.767752        -1.868745
 O        -3.341513         1.329426        -2.231275
 C        -2.909632         0.962347        -0.749231
 C        -1.859695        -0.039230        -0.041627
 C        -1.459227         2.393460         0.671203
 H         0.239944        -0.178759         1.338553
 H         0.216862         2.555121        -1.094799
 H        -0.527512         1.071515        -2.072359
 H        -4.030649         3.239710        -1.594163
 H        -2.518005         3.239359        -2.780581
 H        -3.910252         1.027689        -0.265316
 H        -2.365567        -0.368332         0.883309
 H        -1.410214        -0.799356        -0.686085
 H        -0.666974         3.182853         0.751545
 H        -2.182659         2.415201         1.396510
