19
Iteration:  1685
 O         0.297757         0.430963         0.811870
 C        -0.736747         1.087750         0.101149
 C        -0.493400         1.648289        -1.310178
 C        -1.991398         2.284722        -0.847384
 C        -2.950294         2.634936        -2.012359
 O        -3.559951         1.236976        -1.955760
 C        -2.959681         1.174850        -0.584755
 C        -1.946884         0.117017        -0.143918
 C        -1.268455         2.450203         0.561971
 H         0.056783        -0.451330         0.997241
 H         0.218503         2.428435        -1.472596
 H        -0.368716         0.903826        -2.024257
 H        -3.687489         3.426513        -1.858504
 H        -2.510517         2.612109        -3.019592
 H        -3.598054         1.551329         0.096115
 H        -2.225650        -0.282356         0.873406
 H        -1.655235        -0.648097        -0.906247
 H        -0.448442         3.167523         0.466373
 H        -2.042970         2.429683         1.203669
