19
Iteration:  3683charge 0 multiplicity 1
 O         0.264921         0.311661         0.771126
 C        -0.721783         1.074711         0.139946
 C        -0.691518         1.513054        -1.261847
 C        -2.027072         2.320248        -0.834510
 C        -3.045714         2.634693        -1.932321
 O        -3.311422         1.268625        -2.093048
 C        -2.923396         1.125439        -0.608228
 C        -1.949107         0.074589         0.034672
 C        -1.272122         2.640180         0.412625
 H         0.880744         0.879289         1.345324
 H         0.228979         1.975932        -1.551158
 H        -0.844302         0.853522        -2.196265
 H        -3.840774         3.314824        -1.663887
 H        -2.529568         3.157859        -2.832959
 H        -3.764975         1.485062         0.111823
 H        -2.438760        -0.306239         0.924871
 H        -1.651226        -0.881333        -0.470278
 H        -0.406454         3.286162         0.157175
 H        -1.936804         2.940887         1.142769
