19
Iteration:  4232
 O         0.409815         0.486281         0.827162
 C        -0.795789         1.036764         0.170111
 C        -0.670289         1.640268        -1.255763
 C        -2.027914         2.282458        -0.810365
 C        -2.810806         2.644964        -2.035422
 O        -3.526224         1.280742        -2.057972
 C        -2.946906         1.127526        -0.541113
 C        -1.904796         0.024467        -0.198811
 C        -1.392113         2.371273         0.547437
 H         1.138293         1.037798         0.611409
 H         0.062691         2.430011        -1.163150
 H        -0.829895         0.902399        -2.009806
 H        -3.458356         3.539773        -1.884909
 H        -2.332057         2.837413        -3.007983
 H        -3.758865         1.393554         0.089687
 H        -2.406943        -0.537152         0.538327
 H        -1.758647        -0.588779        -1.034458
 H        -0.664486         3.160987         0.859194
 H        -2.163489         2.606734         1.407774
