19
Iteration:  1232
 O         0.463081         0.640771         0.826094
 C        -0.765786         1.003349         0.148789
 C        -0.638833         1.550403        -1.309362
 C        -1.937224         2.261556        -0.887429
 C        -2.995139         2.694627        -1.876621
 O        -3.424927         1.358680        -2.097299
 C        -2.903018         1.115237        -0.637480
 C        -2.034264        -0.035478        -0.119220
 C        -1.355503         2.328784         0.488332
 H         0.148767         0.014309         1.488284
 H         0.147651         2.294840        -1.317152
 H        -0.463350         0.918786        -2.161621
 H        -3.684375         3.400463        -1.339076
 H        -2.744174         3.260327        -2.766695
 H        -3.819468         1.512674        -0.089451
 H        -2.533432        -0.265561         0.929168
 H        -1.889680        -0.879592        -0.845564
 H        -0.676780         3.094354         0.689639
 H        -2.143307         2.236060         1.282734
