19
Iteration:  4580
 O         0.413301         0.541166         0.866917
 C        -0.745466         1.045653         0.140627
 C        -0.685266         1.618939        -1.323716
 C        -2.096715         2.161473        -0.825420
 C        -2.868831         2.793183        -1.956892
 O        -3.397074         1.405705        -2.092848
 C        -3.005466         1.037899        -0.676078
 C        -1.891513        -0.048598        -0.066978
 C        -1.413480         2.326354         0.552985
 H         0.993593         1.352904         0.972876
 H        -0.117515         2.523478        -1.352214
 H        -0.655381         1.042593        -2.231255
 H        -3.722794         3.460282        -1.889267
 H        -2.197236         2.983870        -2.823308
 H        -3.929239         0.944133        -0.024939
 H        -2.444048        -0.517593         0.787103
 H        -1.477544        -0.928326        -0.708970
 H        -0.657774         3.077246         0.624751
 H        -2.184966         2.287000         1.349781
