19
Iteration:  2150charge 0 multiplicity 1
 O         0.354738         0.340801         0.849860
 C        -0.638013         1.013690         0.085145
 C        -0.657466         1.616462        -1.412455
 C        -1.960521         2.334959        -0.857152
 C        -3.124338         2.714344        -2.010800
 O        -3.392983         1.236125        -1.939864
 C        -2.854368         1.142559        -0.665448
 C        -1.993928         0.048147         0.003715
 C        -1.260869         2.526493         0.449641
 H        -0.218458        -0.050699         1.592352
 H         0.268589         2.121695        -1.545904
 H        -0.973938         1.064730        -2.250127
 H        -3.968887         3.422294        -1.515782
 H        -2.924394         3.216268        -2.922165
 H        -3.680786         1.546960         0.036499
 H        -2.401168        -0.078354         0.973785
 H        -1.725998        -0.872102        -0.598261
 H        -0.433462         3.426212         0.472963
 H        -2.058332         2.798556         1.305008
