19
Iteration:  1953
 O         0.345768         0.498415         0.646444
 C        -0.751051         1.057939         0.171444
 C        -0.650977         1.434048        -1.269082
 C        -1.978093         2.285203        -0.873270
 C        -2.810820         2.658486        -2.033110
 O        -3.487500         1.279613        -1.981789
 C        -2.982884         1.221435        -0.581002
 C        -2.020769         0.058550         0.044461
 C        -1.310478         2.489148         0.569922
 H         1.098560         0.922065         0.106921
 H         0.264143         2.076994        -1.441864
 H        -0.794441         0.653521        -2.040899
 H        -3.544528         3.482770        -1.833766
 H        -2.479449         2.643666        -3.045343
 H        -3.978629         1.439854         0.055479
 H        -2.453143        -0.495739         0.925539
 H        -1.802839        -0.787351        -0.701081
 H        -0.501499         3.159186         0.833169
 H        -2.096815         2.594500         1.380632
