19
Iteration:  4360
 O         0.405074         0.419537         0.778084
 C        -0.749377         0.998178         0.164299
 C        -0.639770         1.646615        -1.249819
 C        -1.915015         2.318587        -0.857264
 C        -2.966285         2.686067        -2.040739
 O        -3.434859         1.269601        -2.058686
 C        -2.952663         1.120675        -0.663510
 C        -1.930075         0.091348        -0.079157
 C        -1.484824         2.358391         0.638783
 H         1.127262         1.122835         0.783060
 H         0.143098         2.454066        -1.279502
 H        -0.542490         1.218633        -2.213352
 H        -3.740706         3.450758        -1.754130
 H        -2.458609         3.002001        -3.028072
 H        -3.895263         1.343307        -0.108376
 H        -2.390519        -0.314961         0.893128
 H        -1.634829        -0.740084        -0.717388
 H        -0.841274         3.172844         0.806436
 H        -2.248185         2.211666         1.379476
