19
Iteration:  1316charge 0 multiplicity 1
 O         0.362461         0.404425         0.687657
 C        -0.796783         1.001239         0.108734
 C        -0.561470         1.752737        -1.282961
 C        -1.949219         2.349443        -0.840308
 C        -3.084705         2.623413        -2.000054
 O        -3.308305         1.230497        -2.014298
 C        -2.879821         1.202916        -0.688061
 C        -1.977056         0.054653        -0.047755
 C        -1.401475         2.406775         0.611848
 H         0.003027        -0.028716         1.508317
 H         0.215263         2.549173        -1.102905
 H        -0.495237         1.101484        -2.164800
 H        -3.901449         3.073652        -1.427277
 H        -2.788713         3.021549        -2.990063
 H        -3.724546         1.379525         0.099067
 H        -2.410209        -0.449275         0.823516
 H        -1.779425        -0.661792        -0.790406
 H        -0.664090         3.208465         0.627211
 H        -2.119363         2.546202         1.518932
