19
Iteration:  2581charge 0 multiplicity 1
 O         0.532283         0.550141         0.659584
 C        -0.735404         0.971305         0.130582
 C        -0.651111         1.526732        -1.290253
 C        -1.915863         2.266566        -0.883904
 C        -2.849190         2.645956        -2.010404
 O        -3.515576         1.318099        -1.977785
 C        -2.973880         1.132740        -0.541161
 C        -2.117071         0.063507        -0.049094
 C        -1.391431         2.496361         0.544211
 H         0.245900         0.156275         1.562591
 H         0.151326         2.209473        -1.357380
 H        -0.540215         0.856593        -2.132393
 H        -3.618396         3.360165        -1.762771
 H        -2.308337         2.787582        -2.894121
 H        -3.660657         1.530350         0.254777
 H        -2.467474        -0.587498         0.848040
 H        -2.269784        -0.672516        -0.831173
 H        -0.559307         3.161565         0.504513
 H        -2.240937         2.666687         1.316350
