19
Iteration:   571
 O         0.485470         0.577128         0.732097
 C        -0.794889         0.927363         0.160041
 C        -0.640111         1.607398        -1.162436
 C        -1.923174         2.341738        -0.845026
 C        -3.055391         2.749458        -1.937319
 O        -3.422757         1.339504        -2.054513
 C        -2.940746         1.065528        -0.719886
 C        -1.945993        -0.036151        -0.221608
 C        -1.398934         2.335824         0.575249
 H         0.383003         0.869671         1.606077
 H         0.191819         2.307113        -1.055541
 H        -0.563113         0.885721        -1.970462
 H        -3.986429         3.372848        -1.507732
 H        -2.805828         3.202486        -2.992707
 H        -3.785270         1.134266         0.045885
 H        -2.303947        -0.466871         0.771623
 H        -1.692652        -0.605081        -1.145757
 H        -0.460667         2.910454         1.101765
 H        -2.197067         2.424627         1.329477
