19
Iteration:  4025
 O         0.327464         0.483351         0.887237
 C        -0.725706         1.004823         0.069597
 C        -0.642415         1.662163        -1.321605
 C        -1.960655         2.320265        -0.870324
 C        -3.002559         2.679161        -1.958621
 O        -3.449230         1.237887        -2.049577
 C        -2.896198         1.044204        -0.673616
 C        -1.993155         0.090070         0.030399
 C        -1.310021         2.485342         0.510030
 H         0.904685        -0.149039         0.331884
 H         0.090992         2.542914        -1.321991
 H        -0.521858         0.981702        -2.178711
 H        -3.920303         3.295335        -1.780171
 H        -2.566070         3.025872        -2.932773
 H        -3.762284         1.275850         0.040522
 H        -2.372203        -0.310827         1.035069
 H        -1.734871        -0.737184        -0.799817
 H        -0.501296         3.157754         0.573543
 H        -1.916849         2.540703         1.426662
