19
Iteration:  2992
 O         0.419593         0.413058         0.737861
 C        -0.755663         1.035033         0.128013
 C        -0.662880         1.513425        -1.258940
 C        -1.936163         2.290317        -0.861412
 C        -3.052488         2.680502        -1.883923
 O        -3.304589         1.262481        -2.077017
 C        -2.949185         1.174572        -0.630303
 C        -2.007465         0.140701        -0.077900
 C        -1.352306         2.540402         0.528243
 H        -0.049315        -0.306294         1.167453
 H         0.014242         2.291310        -1.542610
 H        -0.739008         0.789247        -2.038703
 H        -3.939965         3.291608        -1.622610
 H        -2.699356         3.050645        -2.898146
 H        -3.873882         1.449737        -0.007835
 H        -2.385224        -0.378020         0.947717
 H        -1.702126        -0.686505        -0.828115
 H        -0.513053         3.217102         0.677308
 H        -1.960991         2.570025         1.464679
