19
Iteration:  2866charge 0 multiplicity 1
 O         0.399036         0.355855         0.887215
 C        -0.680311         1.043097         0.134653
 C        -0.683267         1.614558        -1.425448
 C        -1.944032         2.343669        -0.883028
 C        -3.066420         2.730729        -1.923236
 O        -3.413481         1.241356        -2.027540
 C        -2.909651         1.128781        -0.630542
 C        -2.000575         0.041854        -0.103970
 C        -1.283841         2.505094         0.461225
 H         0.143976         0.450091         1.790975
 H         0.156604         2.362894        -1.482337
 H        -0.757736         0.805349        -2.243346
 H        -3.907563         3.347991        -1.400291
 H        -2.796924         3.075388        -2.910038
 H        -3.721016         1.574315         0.103866
 H        -2.417526        -0.193625         0.891836
 H        -1.787494        -0.835295        -0.723372
 H        -0.416357         3.092711         0.642404
 H        -2.054056         2.461169         1.236448
