19
Iteration:  3193charge 0 multiplicity 1
 O         0.342041         0.348719         0.797206
 C        -0.765879         0.980252         0.164166
 C        -0.687784         1.637622        -1.320924
 C        -1.974043         2.327008        -0.921937
 C        -2.937310         2.711482        -2.007859
 O        -3.451554         1.270033        -2.013372
 C        -2.887753         1.153275        -0.694324
 C        -1.953149         0.024518        -0.020411
 C        -1.367680         2.473561         0.575660
 H         1.076876         0.922894         0.876398
 H         0.037013         2.403186        -1.213795
 H        -0.554409         1.020509        -2.196590
 H        -3.847948         3.304999        -1.741917
 H        -2.628342         3.172317        -2.927345
 H        -3.640337         1.540780         0.131869
 H        -2.452833        -0.245181         0.927480
 H        -1.452804        -0.915785        -0.428135
 H        -0.499878         3.165818         0.534058
 H        -2.020829         2.621894         1.423513
