19
Iteration:  3243
 O         0.250829         0.380339         0.954233
 C        -0.749666         1.008607         0.146013
 C        -0.624766         1.650513        -1.354028
 C        -1.963617         2.345338        -0.934837
 C        -3.043652         2.753513        -1.945937
 O        -3.483067         1.250903        -1.953539
 C        -2.818252         1.102569        -0.702538
 C        -1.910458         0.015553        -0.174260
 C        -1.297376         2.464889         0.518837
 H         1.178785         0.767743         1.078200
 H         0.279301         2.371142        -1.464596
 H        -0.819648         0.899210        -2.144636
 H        -3.810984         3.463202        -1.765796
 H        -2.788538         2.944837        -3.047673
 H        -3.477365         1.362550         0.115545
 H        -2.374605        -0.616361         0.677591
 H        -1.632039        -0.677573        -0.904165
 H        -0.471391         3.207066         0.630057
 H        -2.094768         2.674978         1.403600
