19
Iteration:   212
 O         0.464192         0.595837         0.882434
 C        -0.745847         1.010693         0.143615
 C        -0.538448         1.705793        -1.207883
 C        -1.989000         2.256572        -0.824318
 C        -2.999946         2.764986        -1.915992
 O        -3.589235         1.385811        -2.093560
 C        -2.894609         1.005336        -0.776495
 C        -1.822910        -0.053346        -0.236989
 C        -1.538612         2.315087         0.661536
 H         0.714854        -0.361151         0.608239
 H         0.338285         2.433741        -1.394581
 H        -0.586099         1.202905        -2.244643
 H        -3.786894         3.447435        -1.593799
 H        -2.487756         3.169069        -2.881506
 H        -3.723564         1.131681        -0.041567
 H        -2.203744        -0.655391         0.601572
 H        -1.454480        -0.685471        -1.027264
 H        -0.781561         3.121233         1.004351
 H        -2.293027         2.032770         1.451300
