19
Iteration:   978
 O         0.374314         0.515658         0.708199
 C        -0.803665         0.990837         0.163045
 C        -0.673550         1.583443        -1.295457
 C        -1.968482         2.312503        -0.884492
 C        -3.033682         2.806317        -1.863858
 O        -3.377212         1.188632        -2.106895
 C        -2.891059         1.137272        -0.694576
 C        -1.994704         0.033872         0.004389
 C        -1.265664         2.415512         0.504347
 H         0.341280         0.542394         1.648628
 H         0.279856         2.178115        -1.252119
 H        -0.750119         0.847170        -2.144864
 H        -3.902610         3.327329        -1.279844
 H        -2.728953         3.293888        -2.898101
 H        -3.706246         1.514648        -0.086307
 H        -2.284632        -0.350310         1.068633
 H        -1.870742        -0.997294        -0.607725
 H        -0.418848         3.222111         0.508078
 H        -1.953118         2.388783         1.431528
