19
Iteration:  2003
 O         0.307027         0.559510         0.847528
 C        -0.780955         1.050744         0.076330
 C        -0.648392         1.517006        -1.393072
 C        -1.966930         2.211170        -0.943817
 C        -3.015731         2.717479        -1.919961
 O        -3.479787         1.309396        -2.011737
 C        -2.891197         1.106330        -0.631296
 C        -1.984143         0.102399         0.026279
 C        -1.129532         2.418557         0.482024
 H         0.125990        -0.349313         0.971201
 H         0.204154         2.197285        -1.409513
 H        -0.724441         0.763419        -2.193338
 H        -3.852994         3.176223        -1.395836
 H        -2.726113         3.123094        -2.936883
 H        -3.672441         1.398553         0.000220
 H        -2.400825        -0.160599         1.037837
 H        -1.631479        -0.693947        -0.611523
 H        -0.359992         3.141557         0.616847
 H        -1.808869         2.617312         1.409872
