19
Iteration:   439charge 0 multiplicity 1
 O         0.439038         0.579457         0.828597
 C        -0.740027         0.999245         0.142733
 C        -0.710763         1.728458        -1.275312
 C        -2.097280         2.194081        -0.722651
 C        -2.930593         2.783872        -1.920125
 O        -3.441899         1.338444        -2.149526
 C        -2.949317         1.022805        -0.732483
 C        -1.890525         0.004268        -0.185168
 C        -1.380516         2.308746         0.700717
 H         0.853664        -0.250775         0.647610
 H         0.020987         2.548327        -1.399837
 H        -0.606998         1.048879        -2.116676
 H        -3.660366         3.547887        -1.874147
 H        -2.197267         3.127242        -2.707636
 H        -3.923383         1.008190        -0.241923
 H        -2.399143        -0.602428         0.636310
 H        -1.549422        -0.728536        -0.981367
 H        -0.680278         3.277468         0.733116
 H        -2.039661         2.439249         1.572541
