19
Iteration:  4320charge 0 multiplicity 1
 O         0.370458         0.554417         0.887927
 C        -0.808028         0.957216         0.187217
 C        -0.791036         1.541549        -1.307026
 C        -2.057373         2.239432        -0.816826
 C        -2.902256         2.761591        -1.893918
 O        -3.368580         1.379009        -2.105214
 C        -2.917674         1.042308        -0.784675
 C        -1.897547        -0.002853        -0.075059
 C        -1.337825         2.413800         0.505536
 H         1.010696         1.198205         0.632742
 H         0.100236         2.225674        -1.371035
 H        -0.978735         0.892793        -2.215844
 H        -3.671395         3.263316        -1.357792
 H        -2.575189         3.188270        -2.827927
 H        -3.744885         0.962260        -0.020430
 H        -2.388671        -0.458423         0.712151
 H        -1.404243        -0.793006        -0.632104
 H        -0.442907         3.144794         0.519942
 H        -2.010450         2.598941         1.476531
