19
Iteration:  3441
 O         0.313402         0.412060         0.810232
 C        -0.718472         1.061947         0.168100
 C        -0.602644         1.532624        -1.308989
 C        -1.980343         2.288573        -0.847680
 C        -3.011671         2.724861        -1.894060
 O        -3.485897         1.311093        -2.142284
 C        -2.873020         1.037240        -0.639403
 C        -1.930430         0.040706        -0.064650
 C        -1.343257         2.504391         0.482155
 H         0.464741         0.861324         1.619669
 H         0.125198         2.421800        -1.383321
 H        -0.582869         0.817310        -2.190464
 H        -3.878060         3.291731        -1.473509
 H        -2.496817         3.021618        -2.872727
 H        -3.610705         1.453222         0.099697
 H        -2.185855        -0.423527         0.865051
 H        -1.627900        -0.621451        -0.787347
 H        -0.556244         3.264596         0.467848
 H        -1.990829         2.646265         1.437066
