19
Iteration:  1317charge 0 multiplicity 1
 O         0.361403         0.406264         0.686822
 C        -0.800911         1.011166         0.114250
 C        -0.558788         1.750575        -1.287688
 C        -1.945231         2.357488        -0.841001
 C        -3.083445         2.632370        -2.001347
 O        -3.312596         1.230449        -2.020911
 C        -2.882709         1.196700        -0.683616
 C        -1.968951         0.042418        -0.045799
 C        -1.403622         2.407202         0.611614
 H         0.015913        -0.070386         1.530009
 H         0.232401         2.509426        -1.102952
 H        -0.518561         1.111051        -2.161544
 H        -3.917057         3.078319        -1.432526
 H        -2.820229         3.014578        -3.002717
 H        -3.680156         1.384048         0.077955
 H        -2.427047        -0.473741         0.887771
 H        -1.768762        -0.665786        -0.806723
 H        -0.670681         3.169487         0.649109
 H        -2.107551         2.574459         1.522214
