19
Iteration:  1095charge 0 multiplicity 1
 O         0.385869         0.504504         0.782357
 C        -0.789662         0.973153         0.129091
 C        -0.684104         1.543706        -1.293489
 C        -2.014412         2.287254        -0.794717
 C        -3.034673         2.779219        -1.892536
 O        -3.389615         1.273711        -2.106514
 C        -2.898476         1.101275        -0.739858
 C        -1.954689         0.030220        -0.073102
 C        -1.274304         2.490622         0.526494
 H         0.272397         0.540430         1.784793
 H         0.176728         2.161345        -1.442427
 H        -0.726813         0.850890        -2.148906
 H        -3.970137         3.206938        -1.595180
 H        -2.698650         3.346447        -2.752689
 H        -3.647889         1.225946         0.088675
 H        -2.358635        -0.437799         0.943516
 H        -1.770137        -0.915679        -0.652016
 H        -0.284670         3.018640         0.399341
 H        -1.740343         2.681682         1.431814
