19
Iteration:  4485
 O         0.313470         0.429833         0.787543
 C        -0.757433         1.018741         0.187962
 C        -0.668738         1.652998        -1.231360
 C        -2.035279         2.336335        -0.798818
 C        -2.956219         2.697590        -2.024817
 O        -3.416233         1.287915        -2.103841
 C        -2.918077         1.110370        -0.646711
 C        -1.845123         0.009395        -0.142901
 C        -1.409085         2.401065         0.607259
 H         1.033473         1.084665         1.078484
 H         0.081731         2.435040        -1.279539
 H        -0.695758         0.903717        -2.096408
 H        -3.868419         3.302472        -1.833163
 H        -2.458254         2.981301        -2.958454
 H        -3.761602         1.394210        -0.073702
 H        -2.077227        -0.488416         0.712124
 H        -1.486938        -0.743204        -0.834630
 H        -0.558460         3.120892         0.693262
 H        -2.104276         2.397222         1.466862
