19
Iteration:   567charge 0 multiplicity 1
 O         0.469281         0.576430         0.719997
 C        -0.791930         0.930899         0.141543
 C        -0.651902         1.642551        -1.128198
 C        -1.915105         2.353638        -0.875440
 C        -3.022254         2.772567        -1.936023
 O        -3.439204         1.328383        -2.049684
 C        -2.933462         1.040840        -0.699446
 C        -1.948350        -0.053254        -0.216639
 C        -1.376776         2.322988         0.579942
 H         0.438954         1.002823         1.655735
 H         0.201925         2.339205        -1.033762
 H        -0.572899         0.881205        -1.902183
 H        -3.969582         3.332394        -1.533379
 H        -2.769112         3.166376        -2.874195
 H        -3.831098         1.229298        -0.017046
 H        -2.303989        -0.503914         0.712791
 H        -1.774564        -0.703810        -1.095608
 H        -0.582760         2.927506         0.951521
 H        -2.247509         2.324508         1.234858
