19
Iteration:  3343
 O         0.233241         0.216432         0.832973
 C        -0.686412         1.080548         0.037720
 C        -0.683534         1.751360        -1.320717
 C        -1.985040         2.315767        -0.812927
 C        -3.022745         2.638433        -1.926749
 O        -3.287664         1.179504        -2.060044
 C        -2.971995         1.120781        -0.642373
 C        -1.911636         0.154083        -0.073006
 C        -1.361206         2.575788         0.556328
 H         1.144216         0.403573         0.751530
 H         0.011830         2.662230        -1.349172
 H        -0.652539         1.203746        -2.283277
 H        -3.798546         3.127305        -1.521178
 H        -2.555585         3.050706        -2.865061
 H        -4.000936         1.051909        -0.133855
 H        -2.159758        -0.261282         0.943163
 H        -1.688649        -0.703474        -0.715247
 H        -0.605062         3.321293         0.689741
 H        -1.969387         2.751379         1.518837
