19
Iteration:   602
 O         0.373946         0.496998         0.789057
 C        -0.692537         1.085183         0.099695
 C        -0.702082         1.700442        -1.283561
 C        -2.001608         2.249934        -0.812611
 C        -2.960020         2.743396        -1.828201
 O        -3.382731         1.274291        -2.094468
 C        -2.916096         1.040940        -0.721262
 C        -1.915903         0.027339        -0.139157
 C        -1.411219         2.423255         0.531462
 H        -0.136404        -0.233793         1.304228
 H         0.061171         2.464824        -1.523417
 H        -0.633955         1.056757        -2.151052
 H        -3.828040         3.410104        -1.298495
 H        -2.552328         3.235511        -2.757785
 H        -3.724123         1.000630         0.101395
 H        -2.136866        -0.541252         0.859156
 H        -1.647772        -0.867462        -0.789347
 H        -0.544022         3.145974         0.889098
 H        -2.131810         2.342492         1.310495
