19
Iteration:  1689
 O         0.312564         0.438761         0.812754
 C        -0.721188         1.071273         0.096886
 C        -0.493521         1.642149        -1.316365
 C        -2.003074         2.257739        -0.856955
 C        -2.932218         2.605916        -2.022202
 O        -3.553637         1.261531        -1.929669
 C        -2.952421         1.199517        -0.611407
 C        -1.970886         0.122493        -0.164205
 C        -1.283779         2.482005         0.556336
 H         0.286677        -0.536184         1.091302
 H         0.229735         2.500445        -1.350213
 H        -0.429687         0.805356        -2.097642
 H        -3.657623         3.419214        -1.871391
 H        -2.580182         2.595399        -3.063687
 H        -3.726703         1.471680         0.266191
 H        -2.340014        -0.455773         0.843273
 H        -1.670085        -0.645168        -0.903707
 H        -0.485992         3.177515         0.603675
 H        -2.101268         2.490288         1.391957
