19
Iteration:  4016
 O         0.342903         0.474637         0.797120
 C        -0.749548         1.036930         0.112744
 C        -0.590381         1.613452        -1.299380
 C        -1.993578         2.238410        -0.899113
 C        -2.939331         2.679075        -1.986835
 O        -3.454432         1.294414        -2.065487
 C        -2.995030         1.072650        -0.622062
 C        -1.955478         0.064620         0.068745
 C        -1.364540         2.516161         0.562299
 H         1.154703         0.185980         0.261682
 H         0.085923         2.525197        -1.420110
 H        -0.503138         0.897701        -2.197268
 H        -3.736404         3.296730        -1.808894
 H        -2.399207         2.864896        -2.864930
 H        -3.829972         1.288191        -0.046472
 H        -2.153389        -0.480270         1.055143
 H        -1.701517        -0.778799        -0.745650
 H        -0.670033         3.354648         0.632195
 H        -2.028208         2.481180         1.417727
