19
Iteration:   827
 O         0.401302         0.550078         0.869774
 C        -0.708688         0.986564         0.045206
 C        -0.628726         1.565595        -1.352305
 C        -1.991759         2.320836        -0.833891
 C        -3.048602         2.722988        -1.918526
 O        -3.328546         1.239424        -2.053182
 C        -2.972497         1.153222        -0.651141
 C        -2.062882         0.039741        -0.092407
 C        -1.314414         2.429669         0.621186
 H         0.789101        -0.171384         0.437278
 H         0.166369         2.260314        -1.643705
 H        -0.641462         1.027451        -2.268591
 H        -3.947503         3.304699        -1.550077
 H        -2.666985         3.114131        -2.898289
 H        -3.899287         1.148516         0.009661
 H        -2.452200        -0.351828         0.834900
 H        -1.872571        -0.598622        -0.930525
 H        -0.665057         3.216674         0.783298
 H        -1.852399         2.392873         1.570255
