19
Iteration:   230charge 0 multiplicity 1
 O         0.324592         0.667808         0.855720
 C        -0.723988         0.931629         0.043890
 C        -0.634092         1.775810        -1.243631
 C        -1.984578         2.280610        -0.834286
 C        -3.032759         2.733963        -1.892875
 O        -3.419062         1.335608        -2.017998
 C        -2.856575         1.076696        -0.731210
 C        -1.887389        -0.006844        -0.286922
 C        -1.431886         2.200699         0.635411
 H         0.300558        -0.353150         1.001042
 H         0.068170         2.529012        -1.065262
 H        -0.134637         1.206019        -1.993848
 H        -3.869383         3.388999        -1.561677
 H        -2.686178         3.115810        -2.872960
 H        -3.550657         1.118470         0.119439
 H        -2.292343        -0.509851         0.593003
 H        -1.548833        -0.856778        -0.946850
 H        -0.668062         2.883202         0.814801
 H        -2.107014         2.119195         1.443345
