19
Iteration:  4838
 O         0.332065         0.515779         0.838744
 C        -0.722383         1.049545         0.117949
 C        -0.704992         1.679025        -1.322051
 C        -2.007296         2.191303        -0.810435
 C        -2.903836         2.710764        -1.936600
 O        -3.412374         1.351839        -2.153300
 C        -2.951306         1.004764        -0.696248
 C        -1.914151        -0.008626        -0.027245
 C        -1.394661         2.369771         0.593674
 H         1.060656         1.228734         0.916616
 H         0.136853         2.468826        -1.359600
 H        -0.635683         0.915085        -2.116901
 H        -3.786373         3.367652        -1.591851
 H        -2.302627         3.302467        -2.668382
 H        -4.060112         1.124649        -0.518885
 H        -2.246379        -0.417109         1.025225
 H        -1.639797        -0.851410        -0.631735
 H        -0.609811         3.171879         0.749341
 H        -2.065585         2.438267         1.419582
