19
Iteration:  4521
 O         0.236409         0.315444         0.872055
 C        -0.699700         1.032464         0.093563
 C        -0.649094         1.798413        -1.267909
 C        -1.972573         2.314224        -0.802386
 C        -3.045892         2.621801        -1.906266
 O        -3.326126         1.184461        -2.138350
 C        -2.953271         1.177112        -0.682769
 C        -1.871653         0.037795        -0.136298
 C        -1.409326         2.471332         0.543861
 H         1.152752         0.735324         0.810424
 H         0.180132         2.594103        -1.368046
 H        -0.543507         1.252925        -2.224888
 H        -3.907291         3.122503        -1.502787
 H        -2.673716         3.206390        -2.721351
 H        -3.714796         1.467159         0.099112
 H        -2.157487        -0.267423         0.939995
 H        -1.685570        -0.816794        -0.776988
 H        -0.488055         3.260365         0.726771
 H        -2.127594         2.590505         1.395569
