19
Iteration:  3409charge 0 multiplicity 1
 O         0.417316         0.621547         0.921046
 C        -0.707794         0.958674         0.137520
 C        -0.687868         1.513018        -1.380548
 C        -1.995027         2.249448        -0.885288
 C        -2.911334         2.745515        -1.947005
 O        -3.470506         1.431079        -2.021010
 C        -2.914352         1.060841        -0.682458
 C        -2.012841        -0.068111        -0.114575
 C        -1.362772         2.291925         0.529431
 H         0.712430         1.519755         1.296867
 H         0.051446         2.357159        -1.543098
 H        -0.755901         0.979551        -2.364501
 H        -3.643542         3.519217        -1.865184
 H        -2.449773         2.990875        -2.958934
 H        -3.727361         1.320177         0.124723
 H        -2.365283        -0.487061         0.803893
 H        -1.765678        -0.926148        -0.723375
 H        -0.656155         3.102388         0.744027
 H        -2.058572         2.358706         1.424273
