19
Iteration:  2623charge 0 multiplicity 1
 O         0.309073         0.394025         0.754067
 C        -0.696460         1.059497         0.066620
 C        -0.657150         1.619676        -1.357141
 C        -2.028347         2.287666        -0.870122
 C        -3.015566         2.685551        -1.900123
 O        -3.342011         1.197749        -2.090713
 C        -2.918522         1.130393        -0.572495
 C        -1.997338         0.168472         0.057687
 C        -1.216134         2.526730         0.497133
 H        -0.147058        -0.358061         1.198928
 H         0.084588         2.362056        -1.789288
 H        -0.803248         0.786091        -2.118506
 H        -3.842614         3.284000        -1.426796
 H        -2.763240         3.212201        -2.813309
 H        -3.981483         1.426744        -0.130920
 H        -2.248768        -0.183013         1.187260
 H        -1.822660        -0.798160        -0.463846
 H        -0.411355         3.202907         0.446030
 H        -1.788436         2.455979         1.454508
