19
Iteration:  2303charge 0 multiplicity 1
 O         0.472045         0.432922         0.679947
 C        -0.717979         0.992617         0.087435
 C        -0.642512         1.573577        -1.341253
 C        -1.982839         2.251322        -0.874105
 C        -2.860579         2.708870        -1.979273
 O        -3.487917         1.246714        -1.971169
 C        -2.981020         1.185112        -0.594707
 C        -2.021701         0.164438         0.042613
 C        -1.382428         2.469087         0.523677
 H         0.152538        -0.087571         1.395114
 H         0.067239         2.375217        -1.584893
 H        -0.645808         0.808977        -2.102109
 H        -3.773591         3.294828        -1.738678
 H        -2.311030         2.864510        -2.916655
 H        -3.777645         1.472586         0.106207
 H        -2.449862        -0.114409         1.000083
 H        -1.907746        -0.844801        -0.522684
 H        -0.541071         3.205290         0.529180
 H        -2.098710         2.605839         1.338701
