19
Iteration:  2743charge 0 multiplicity 1
 O         0.368227         0.341907         0.824216
 C        -0.780698         0.995241         0.095101
 C        -0.623612         1.547953        -1.389350
 C        -1.947401         2.267152        -0.947487
 C        -3.056943         2.756082        -1.913590
 O        -3.402062         1.268881        -1.985830
 C        -2.879509         1.146731        -0.610498
 C        -1.991585         0.075499        -0.047644
 C        -1.305580         2.594629         0.511879
 H         0.313402         0.653573         1.704989
 H         0.305395         2.154262        -1.633478
 H        -0.583522         0.752844        -2.222306
 H        -3.896316         3.308281        -1.343876
 H        -2.962419         3.098262        -2.984767
 H        -3.580081         1.528988         0.076676
 H        -2.339371        -0.496403         0.783177
 H        -1.705397        -0.668647        -0.738019
 H        -0.569384         3.333076         0.432216
 H        -2.027283         2.553125         1.350159
