19
Iteration:  3905
 O         0.398120         0.561548         0.800968
 C        -0.742157         1.047668         0.200957
 C        -0.522594         1.483300        -1.302116
 C        -1.957953         2.274864        -0.979012
 C        -2.982550         2.727419        -1.934142
 O        -3.505179         1.224078        -1.976365
 C        -2.904020         1.141147        -0.657037
 C        -2.089734         0.032053        -0.083771
 C        -1.316652         2.500774         0.452963
 H         0.144096         0.053455         1.578163
 H         0.414410         2.199514        -1.341442
 H        -0.523848         0.750575        -2.125962
 H        -3.866309         3.216071        -1.576584
 H        -2.674525         3.116086        -2.898811
 H        -3.659257         1.394031         0.056736
 H        -2.431138        -0.329783         0.935559
 H        -1.629134        -0.726831        -0.848250
 H        -0.546179         3.231992         0.496699
 H        -1.940948         2.634950         1.374235
