19
Iteration:  3283
 O         0.484197         0.571132         0.789497
 C        -0.675667         1.087911         0.155604
 C        -0.653121         1.490937        -1.317919
 C        -1.954551         2.170710        -0.860889
 C        -2.866795         2.800432        -1.903830
 O        -3.487429         1.369527        -2.078362
 C        -2.995712         1.082318        -0.699111
 C        -2.076260        -0.020566        -0.029013
 C        -1.496799         2.319424         0.554673
 H         1.068584         1.306802         0.930423
 H         0.209372         2.160157        -1.409894
 H        -0.547019         0.645358        -2.050828
 H        -3.602692         3.648305        -1.597510
 H        -2.288690         3.103327        -2.747358
 H        -3.826816         1.441186         0.058145
 H        -2.441285        -0.467541         0.834726
 H        -1.633740        -0.766822        -0.756458
 H        -0.711335         3.125576         0.451007
 H        -2.165420         2.172370         1.336051
