19
Iteration:  2078charge 0 multiplicity 1
 O         0.482537         0.544212         0.666944
 C        -0.740073         0.991564         0.084545
 C        -0.679601         1.516746        -1.322803
 C        -1.944033         2.278669        -0.849416
 C        -2.820660         2.641848        -2.087003
 O        -3.540853         1.336892        -1.964771
 C        -3.012687         1.195075        -0.575426
 C        -2.046886         0.058473         0.032517
 C        -1.327856         2.366527         0.600641
 H         0.426083         0.694190         1.674669
 H        -0.060698         2.456263        -1.575889
 H        -0.752932         0.780473        -2.194153
 H        -3.532936         3.464374        -2.130097
 H        -2.264722         2.603821        -3.084285
 H        -3.925050         1.487186         0.123784
 H        -2.389884        -0.325573         1.017679
 H        -1.749950        -0.670579        -0.730914
 H        -0.658874         3.187829         0.839457
 H        -1.908661         2.233095         1.446445
