19
Iteration:  3759
 O         0.366111         0.639592         0.839184
 C        -0.785317         1.018473         0.173673
 C        -0.613428         1.499635        -1.225563
 C        -1.927772         2.254264        -0.898284
 C        -2.861920         2.634671        -1.992438
 O        -3.571115         1.376725        -1.991613
 C        -2.952785         1.067117        -0.665390
 C        -2.020321         0.004463        -0.040035
 C        -1.332246         2.462750         0.448514
 H         0.742457         0.068880         0.141240
 H         0.200324         2.207478        -1.423645
 H        -0.678229         0.709043        -2.060342
 H        -3.397337         3.482598        -1.793127
 H        -2.186267         2.797736        -2.886276
 H        -3.724357         1.282557         0.134185
 H        -2.294587        -0.556165         0.962751
 H        -1.615940        -0.765133        -0.821500
 H        -0.523651         3.238434         0.471812
 H        -1.941151         2.580706         1.337613
