19
Iteration:  3959charge 0 multiplicity 1
 O         0.333552         0.499989         0.804557
 C        -0.732660         1.012339         0.099630
 C        -0.697364         1.586231        -1.325005
 C        -2.020816         2.281463        -0.913160
 C        -2.961121         2.648106        -1.972028
 O        -3.360408         1.241077        -2.011504
 C        -2.935883         1.152911        -0.608202
 C        -2.015830         0.139657        -0.019508
 C        -1.268532         2.371223         0.488517
 H         0.510642         1.127158         1.482925
 H         0.117615         2.400237        -1.448468
 H        -0.680728         0.921999        -2.195617
 H        -3.712035         3.308095        -1.661813
 H        -2.598605         3.051439        -2.913793
 H        -3.810701         1.300214        -0.046117
 H        -2.218401        -0.248498         1.049434
 H        -1.936617        -0.850684        -0.658982
 H        -0.390522         2.964504         0.504542
 H        -1.877807         2.455133         1.414574
