19
Iteration:   288charge 0 multiplicity 1
 O         0.423064         0.447830         0.669849
 C        -0.745960         1.024502         0.118790
 C        -0.626222         1.802114        -1.208966
 C        -2.042456         2.322588        -0.747378
 C        -3.081990         2.765154        -1.867026
 O        -3.343385         1.329089        -2.231375
 C        -2.906797         0.960284        -0.745907
 C        -1.865729        -0.040195        -0.041000
 C        -1.461503         2.393707         0.677404
 H         0.283656        -0.170826         1.361065
 H         0.212617         2.592778        -1.083990
 H        -0.507229         1.042608        -2.050718
 H        -4.034094         3.241252        -1.599866
 H        -2.502454         3.245751        -2.768037
 H        -3.908286         1.060446        -0.276329
 H        -2.386614        -0.356396         0.877144
 H        -1.435920        -0.798280        -0.675089
 H        -0.651524         3.172884         0.773414
 H        -2.185232         2.398646         1.405965
