19
Iteration:  2247
 O         0.391330         0.456551         0.771205
 C        -0.718055         0.961646         0.049840
 C        -0.685964         1.574045        -1.377805
 C        -1.960917         2.260837        -0.917468
 C        -2.971399         2.666129        -1.887985
 O        -3.376553         1.281796        -2.028255
 C        -2.973961         1.147446        -0.555170
 C        -2.042588         0.119633         0.003221
 C        -1.222335         2.496922         0.484329
 H        -0.062009         0.406869         1.672313
 H         0.148262         2.267432        -1.604725
 H        -0.742815         0.836366        -2.201504
 H        -3.848602         3.242604        -1.575050
 H        -2.767439         3.171346        -2.821557
 H        -3.869560         1.401748         0.089138
 H        -2.392591        -0.221218         0.986831
 H        -1.908736        -0.791383        -0.690706
 H        -0.541571         3.300478         0.568958
 H        -1.952011         2.444739         1.317790
