19
Iteration:    46charge 0 multiplicity 1
 O         0.195810         0.430560         0.848821
 C        -0.719458         1.042415         0.104164
 C        -0.563131         1.717420        -1.265187
 C        -1.954287         2.288002        -0.889050
 C        -3.057108         2.768042        -1.834913
 O        -3.494241         1.255597        -2.002555
 C        -2.802904         1.030473        -0.695222
 C        -1.833600        -0.005462        -0.201878
 C        -1.396580         2.395182         0.520815
 H         1.010009         0.914763         0.707615
 H         0.212157         2.502606        -1.269310
 H        -0.364850         1.134369        -2.185529
 H        -3.862682         3.288550        -1.355560
 H        -2.826920         3.207002        -2.851689
 H        -3.637240         1.118097        -0.013630
 H        -2.208995        -0.448663         0.692864
 H        -1.477973        -0.775656        -0.882925
 H        -0.644170         3.256996         0.665768
 H        -2.121732         2.577160         1.311632
