19
Iteration:   694
 O         0.373172         0.451107         0.841943
 C        -0.711474         1.013065         0.105891
 C        -0.632555         1.620018        -1.266759
 C        -2.049151         2.226339        -0.792445
 C        -2.980399         2.689896        -1.934421
 O        -3.489497         1.390525        -2.107775
 C        -2.922213         1.055378        -0.735252
 C        -1.850557         0.026332        -0.077300
 C        -1.400127         2.399945         0.568864
 H         1.038946         1.108467         0.907752
 H         0.187385         2.276107        -1.457365
 H        -0.876817         1.065269        -2.161472
 H        -3.737819         3.515292        -1.512632
 H        -2.608064         3.107808        -2.970343
 H        -3.770890         1.195060        -0.009916
 H        -2.222958        -0.339032         0.834612
 H        -1.579254        -0.806225        -0.727810
 H        -0.731836         3.191360         0.541875
 H        -1.897248         2.437192         1.606628
