19
Iteration:  3347
 O         0.250197         0.202177         0.849954
 C        -0.699559         1.041096         0.055688
 C        -0.648895         1.737420        -1.306319
 C        -2.009066         2.377308        -0.844566
 C        -3.013941         2.661291        -1.956884
 O        -3.328078         1.175708        -2.067662
 C        -2.961493         1.139673        -0.639483
 C        -1.870955         0.128850        -0.053368
 C        -1.403749         2.595015         0.579323
 H         1.249742         0.326009         0.709365
 H         0.026656         2.511620        -1.376192
 H        -0.790468         1.280450        -2.289037
 H        -3.984288         3.093851        -1.430854
 H        -2.564016         3.039176        -2.845483
 H        -3.886832         1.095619        -0.210574
 H        -2.030306        -0.211760         0.953390
 H        -1.580711        -0.762833        -0.827554
 H        -0.537734         3.326743         0.564571
 H        -1.981775         2.671983         1.447166
