19
Iteration:  3339
 O         0.209765         0.236347         0.812256
 C        -0.678443         1.098563         0.050416
 C        -0.693533         1.766369        -1.336834
 C        -1.994954         2.282319        -0.789054
 C        -2.999650         2.615300        -1.919053
 O        -3.257710         1.190081        -2.056671
 C        -2.966661         1.086879        -0.638776
 C        -1.951606         0.167675        -0.079775
 C        -1.330771         2.552515         0.549623
 H         1.176783         0.549795         0.740440
 H        -0.025052         2.678151        -1.351608
 H        -0.551741         1.124314        -2.224547
 H        -3.907316         3.305866        -1.543838
 H        -2.636946         3.062339        -2.847575
 H        -3.962337         1.125846        -0.033988
 H        -2.267691        -0.272604         0.872590
 H        -1.759552        -0.701613        -0.666002
 H        -0.569092         3.360336         0.699488
 H        -1.957134         2.690983         1.448101
