19
Iteration:  1519charge 0 multiplicity 1
 O         0.287653         0.536313         0.937209
 C        -0.729093         1.053051         0.123669
 C        -0.619463         1.503567        -1.347871
 C        -1.995535         2.214828        -0.838357
 C        -2.993949         2.761187        -1.888388
 O        -3.481198         1.344229        -2.100851
 C        -2.943852         1.090113        -0.748553
 C        -1.888884         0.046279        -0.106273
 C        -1.324565         2.431947         0.553588
 H         0.952298         0.121070         0.387735
 H         0.222920         2.161281        -1.505660
 H        -0.552534         0.746962        -2.102333
 H        -3.726651         3.416848        -1.379004
 H        -2.591228         3.201999        -2.811872
 H        -3.634282         1.371885         0.191160
 H        -2.289773        -0.404274         0.871255
 H        -1.474854        -0.778132        -0.793617
 H        -0.469729         3.192048         0.685028
 H        -2.018317         2.269864         1.325556
