19
Iteration:   754
 O         0.359857         0.512582         0.745389
 C        -0.773212         0.997692         0.117411
 C        -0.599470         1.621901        -1.305584
 C        -1.966313         2.282847        -0.867181
 C        -3.039733         2.772910        -1.977376
 O        -3.409594         1.238558        -1.985069
 C        -2.920208         1.098791        -0.660525
 C        -1.941768         0.043063        -0.150164
 C        -1.320247         2.415316         0.611264
 H         0.098344         0.222962         1.650875
 H         0.329517         2.344971        -1.296204
 H        -0.597643         0.963301        -2.268216
 H        -3.899854         3.349415        -1.583905
 H        -2.791870         3.059023        -2.992530
 H        -3.721360         1.407046         0.087701
 H        -2.341954        -0.459373         0.789836
 H        -1.586680        -0.661255        -0.938087
 H        -0.455090         3.203926         0.891232
 H        -2.116440         2.356026         1.495864
