19
Iteration:  1594charge 0 multiplicity 1
 O         0.473798         0.405757         0.732548
 C        -0.715519         0.948776         0.119497
 C        -0.712276         1.573885        -1.315934
 C        -1.988667         2.294146        -0.844973
 C        -2.880557         2.771351        -2.034868
 O        -3.454011         1.297457        -2.056429
 C        -2.955273         1.131577        -0.649095
 C        -1.995089         0.082473         0.033117
 C        -1.418155         2.451736         0.596872
 H         0.580741         0.857464         1.629378
 H         0.036669         2.375652        -1.275586
 H        -0.826956         0.988259        -2.283367
 H        -3.717998         3.472019        -1.785697
 H        -2.265151         2.906160        -2.928983
 H        -3.707053         1.247633         0.068809
 H        -2.323691        -0.391632         0.947811
 H        -1.825169        -0.798102        -0.598119
 H        -0.666866         3.391205         0.458865
 H        -2.224920         2.242845         1.310204
