19
Iteration:   469charge 0 multiplicity 1
 O         0.395219         0.525884         0.779149
 C        -0.795817         0.972079         0.158393
 C        -0.644046         1.725583        -1.295749
 C        -1.998351         2.282682        -0.844376
 C        -3.022532         2.766505        -1.901615
 O        -3.338852         1.340282        -2.125172
 C        -2.871263         1.060034        -0.692981
 C        -1.920178         0.018505        -0.087164
 C        -1.479500         2.292925         0.675241
 H         1.120154         0.252088         0.097883
 H         0.137489         2.452386        -1.232952
 H        -0.585295         1.057280        -2.135746
 H        -3.893586         3.347769        -1.386335
 H        -2.509383         3.137513        -2.721692
 H        -3.841485         1.134181        -0.159957
 H        -2.383389        -0.501066         0.728133
 H        -1.597211        -0.843255        -0.708629
 H        -0.734769         3.043386         0.916121
 H        -2.445295         2.240832         1.221356
