19
Iteration:  4571
 O         0.417756         0.562241         0.832914
 C        -0.737153         0.965924         0.187445
 C        -0.732715         1.571519        -1.306472
 C        -2.037431         2.242663        -0.761220
 C        -2.856265         2.789821        -1.955724
 O        -3.442037         1.355672        -2.154129
 C        -2.904158         1.005350        -0.699290
 C        -1.916676         0.004250        -0.052265
 C        -1.482414         2.372355         0.550944
 H         0.928044         1.429997         0.923292
 H         0.034810         2.279340        -1.334568
 H        -0.615004         0.989449        -2.237945
 H        -3.609357         3.548985        -1.567630
 H        -2.352616         3.179476        -2.873861
 H        -3.789330         1.023955        -0.050341
 H        -2.284203        -0.497950         0.784002
 H        -1.729316        -0.719052        -0.919079
 H        -0.746803         3.041030         0.646105
 H        -2.061863         2.207673         1.430346
