19
Iteration:  3639charge 0 multiplicity 1
 O         0.371037         0.558854         0.732237
 C        -0.793239         0.954197         0.115829
 C        -0.657234         1.523864        -1.344275
 C        -1.923912         2.288365        -0.857600
 C        -2.880658         2.633878        -2.003507
 O        -3.482000         1.322719        -2.027618
 C        -2.849490         1.169277        -0.628834
 C        -2.075781         0.090092         0.090561
 C        -1.354422         2.331236         0.535259
 H         0.626303         1.432891         1.181079
 H         0.197170         2.154240        -1.504142
 H        -0.595542         0.855826        -2.269722
 H        -3.742411         3.359678        -2.016429
 H        -2.334244         2.843753        -3.011611
 H        -3.696636         1.474640         0.023243
 H        -2.416599        -0.035654         1.076739
 H        -2.124105        -0.899929        -0.405182
 H        -0.469861         3.006874         0.533951
 H        -1.867631         2.402373         1.449446
