19
Iteration:   848charge 0 multiplicity 1
 O         0.283226         0.466863         0.900008
 C        -0.740473         1.020163         0.140672
 C        -0.683571         1.642094        -1.301639
 C        -1.946279         2.288558        -0.867177
 C        -3.099738         2.692386        -1.867007
 O        -3.379799         1.279793        -2.092608
 C        -2.891953         1.105154        -0.646673
 C        -1.946759         0.067446        -0.118817
 C        -1.277500         2.423988         0.474188
 H         1.000703         0.111112         0.294690
 H         0.126296         2.346209        -1.494798
 H        -0.647416         1.044854        -2.187170
 H        -3.914155         3.217767        -1.457510
 H        -2.787897         3.182081        -2.816266
 H        -3.659438         1.295160         0.198131
 H        -2.271152        -0.278182         0.862656
 H        -1.657533        -0.782750        -0.798919
 H        -0.396509         2.990729         0.566371
 H        -1.830760         2.643601         1.377455
