19
Iteration:  1038charge 0 multiplicity 1
 O         0.408895         0.465885         0.712355
 C        -0.784127         1.029025         0.189940
 C        -0.596557         1.688312        -1.264183
 C        -1.960145         2.258629        -0.888785
 C        -2.962062         2.607450        -2.070134
 O        -3.529752         1.367498        -1.956582
 C        -2.939651         1.094595        -0.657628
 C        -1.946518         0.007236        -0.082799
 C        -1.338889         2.490288         0.585006
 H         0.326804        -0.274520         1.270955
 H         0.216359         2.408970        -1.122937
 H        -0.430802         1.047942        -2.141952
 H        -3.728252         3.325057        -1.883110
 H        -2.585299         2.699893        -3.066421
 H        -3.717363         1.288539         0.121758
 H        -2.316929        -0.373661         0.914032
 H        -1.551914        -0.734641        -0.813328
 H        -0.543154         3.197219         0.683923
 H        -2.016824         2.574805         1.426586
