19
Iteration:  1858
 O         0.393819         0.536935         0.868478
 C        -0.721215         0.964196         0.120602
 C        -0.615642         1.450961        -1.297410
 C        -1.927879         2.198179        -0.865709
 C        -2.918201         2.689829        -1.992398
 O        -3.571596         1.384830        -1.962145
 C        -2.933178         1.136540        -0.635969
 C        -2.032202         0.050627        -0.065954
 C        -1.363592         2.455706         0.440440
 H         1.204147         0.903416         0.389940
 H         0.175739         2.238129        -1.418189
 H        -0.517857         0.652528        -2.041685
 H        -3.534931         3.467271        -1.527972
 H        -2.528030         3.106486        -2.915492
 H        -3.668586         1.446686         0.059625
 H        -2.285906        -0.512679         0.756200
 H        -1.851249        -0.744616        -0.823141
 H        -0.549978         3.295110         0.606536
 H        -2.078347         2.639066         1.198543
