19
Iteration:  3333charge 0 multiplicity 1
 O         0.198190         0.286520         0.770677
 C        -0.696128         1.092151         0.105192
 C        -0.670955         1.761314        -1.344159
 C        -2.053732         2.285247        -0.784198
 C        -2.988516         2.632781        -1.909886
 O        -3.236198         1.210217        -2.055365
 C        -2.944973         1.048410        -0.627922
 C        -1.988558         0.149410        -0.072413
 C        -1.285920         2.516533         0.554709
 H         1.051850         0.737266         0.744341
 H        -0.006129         2.643067        -1.427032
 H        -0.534136         1.051806        -2.163970
 H        -3.828595         3.182117        -1.666915
 H        -2.677033         3.074016        -2.890151
 H        -3.756867         1.361693         0.034907
 H        -2.375586        -0.249431         0.896348
 H        -1.758106        -0.746438        -0.727516
 H        -0.551303         3.301046         0.517824
 H        -2.025021         2.450493         1.404312
