19
Iteration:  1781charge 0 multiplicity 1
 O         0.309654         0.484766         0.776777
 C        -0.758280         1.017013         0.126233
 C        -0.713962         1.559971        -1.294011
 C        -1.936641         2.364716        -0.899277
 C        -3.065300         2.658957        -1.895577
 O        -3.324442         1.237291        -2.077493
 C        -2.907412         1.142868        -0.641193
 C        -1.999388         0.092242        -0.011336
 C        -1.234445         2.510225         0.517036
 H         0.238842        -0.451522         0.658604
 H         0.210417         2.130227        -1.555348
 H        -0.850574         0.731348        -2.000679
 H        -3.812584         3.289150        -1.352606
 H        -2.717985         3.180276        -2.785282
 H        -3.878480         1.408252        -0.008938
 H        -2.455586        -0.196627         0.910218
 H        -1.637324        -0.820850        -0.535980
 H        -0.260283         3.184824         0.503784
 H        -1.825081         2.440460         1.374512
