19
Iteration:  1614
 O         0.441119         0.584454         0.690802
 C        -0.747666         1.009970         0.146340
 C        -0.736964         1.499424        -1.284167
 C        -1.961908         2.242545        -0.878093
 C        -2.915780         2.724204        -1.928335
 O        -3.382047         1.383777        -2.093442
 C        -2.985332         1.113628        -0.689897
 C        -2.047729        -0.016708         0.028481
 C        -1.312479         2.389907         0.594647
 H         0.408382         0.509874         1.616159
 H         0.126359         2.203630        -1.489732
 H        -0.770195         0.764117        -2.163875
 H        -3.813194         3.326593        -1.695954
 H        -2.326443         3.046291        -2.787216
 H        -3.861054         1.274049        -0.087940
 H        -2.446878        -0.138653         0.973396
 H        -1.853026        -0.932051        -0.450635
 H        -0.425025         2.957991         0.477928
 H        -2.098567         2.540225         1.396134
