19
Iteration:  4653
 O         0.275298         0.307086         0.849383
 C        -0.754153         1.075258         0.121608
 C        -0.660320         1.773840        -1.305438
 C        -1.960093         2.306341        -0.820349
 C        -3.022985         2.718833        -1.887448
 O        -3.373275         1.191059        -2.083702
 C        -2.881803         1.078103        -0.775730
 C        -1.904427         0.031306        -0.096083
 C        -1.409021         2.506229         0.558550
 H         1.027340         0.972319         0.789365
 H         0.219147         2.547297        -1.114153
 H        -0.435031         1.069211        -2.132986
 H        -4.027966         3.189224        -1.673027
 H        -2.541603         3.026025        -2.863687
 H        -3.653642         1.252931        -0.009518
 H        -2.233830        -0.536300         0.837463
 H        -1.580386        -0.773805        -0.686275
 H        -0.626676         3.375597         0.805117
 H        -2.085139         2.612349         1.474277
