19
Iteration:  4205
 O         0.351540         0.598532         0.869302
 C        -0.770125         1.016258         0.069338
 C        -0.626597         1.535787        -1.290927
 C        -1.975986         2.298185        -0.829397
 C        -2.999980         2.735209        -1.934973
 O        -3.382312         1.351674        -2.046289
 C        -2.912088         1.070667        -0.707319
 C        -1.983906        -0.038733        -0.106585
 C        -1.353828         2.352777         0.544908
 H         1.195525         0.853268         0.523879
 H         0.212832         2.271181        -1.248323
 H        -0.719181         0.761255        -2.093834
 H        -3.797488         3.413936        -1.519598
 H        -2.604772         2.953205        -2.946844
 H        -3.834556         1.322038        -0.061783
 H        -2.557873        -0.208376         0.854953
 H        -1.785038        -1.073497        -0.565037
 H        -0.643343         3.100076         0.874420
 H        -2.116620         2.359511         1.295251
