19
Iteration:  3307
 O         0.429612         0.501211         0.736568
 C        -0.754930         0.905948         0.123596
 C        -0.782679         1.548946        -1.267410
 C        -1.944221         2.364603        -0.825622
 C        -2.981818         2.722490        -1.985632
 O        -3.333875         1.294629        -2.105112
 C        -2.928704         1.085543        -0.681511
 C        -1.991642         0.041910        -0.044398
 C        -1.384571         2.449136         0.656337
 H         0.865935         1.325005         0.919247
 H         0.222706         2.122280        -1.258180
 H        -0.795366         0.846196        -2.135517
 H        -3.766480         3.386889        -1.604217
 H        -2.691814         3.048043        -2.983681
 H        -3.855293         1.316480         0.017943
 H        -2.432026        -0.284954         0.909232
 H        -1.830438        -0.778708        -0.665647
 H        -0.403160         2.950108         0.832128
 H        -2.232326         2.502925         1.377982
