19
Iteration:   692
 O         0.377504         0.452581         0.845605
 C        -0.730416         1.005845         0.108414
 C        -0.655504         1.640665        -1.279882
 C        -2.030618         2.211267        -0.791970
 C        -2.957446         2.702614        -1.947723
 O        -3.490624         1.380936        -2.088538
 C        -2.915766         1.046180        -0.738136
 C        -1.853956         0.021760        -0.079918
 C        -1.404805         2.391819         0.581872
 H         1.068473         1.185304         0.757854
 H         0.202096         2.204991        -1.419823
 H        -0.891038         1.123338        -2.187434
 H        -3.692471         3.507973        -1.504055
 H        -2.596174         3.166733        -2.949411
 H        -3.856058         1.210772        -0.061674
 H        -2.268267        -0.308470         0.895208
 H        -1.535404        -0.834319        -0.747416
 H        -0.749148         3.246180         0.584852
 H        -1.907198         2.506559         1.509446
