19
Iteration:  1159charge 0 multiplicity 1
 O         0.403424         0.512556         0.653135
 C        -0.790995         0.989254         0.152768
 C        -0.660419         1.659724        -1.219509
 C        -1.932737         2.382419        -0.869807
 C        -2.924420         2.621456        -2.026943
 O        -3.414470         1.293093        -2.008668
 C        -2.907480         1.112852        -0.624433
 C        -2.021606         0.009760        -0.069615
 C        -1.381157         2.404942         0.601293
 H         0.161876        -0.010525         1.517115
 H         0.170564         2.378391        -1.340280
 H        -0.541717         0.922265        -2.082410
 H        -3.806350         3.277758        -1.831865
 H        -2.482422         2.979495        -2.963319
 H        -3.590469         1.514596         0.003761
 H        -2.539844        -0.362443         0.879174
 H        -1.707650        -0.732470        -0.844766
 H        -0.581125         3.223912         0.798284
 H        -2.090566         2.350806         1.443676
