19
Iteration:  4687
 O         0.434615         0.554001         0.861618
 C        -0.795041         1.016530         0.090873
 C        -0.692549         1.561872        -1.304049
 C        -2.023470         2.259970        -0.768490
 C        -2.905505         2.752456        -1.908535
 O        -3.413400         1.320953        -2.129076
 C        -2.965108         1.071706        -0.732093
 C        -1.919299        -0.027178        -0.119664
 C        -1.419363         2.378154         0.650684
 H         1.028081         1.387075         0.943016
 H         0.208507         2.307533        -1.391844
 H        -0.663518         0.810958        -2.128544
 H        -3.794080         3.429593        -1.920264
 H        -2.369039         2.978020        -2.852270
 H        -3.880502         1.306814        -0.187722
 H        -2.255240        -0.428116         0.863301
 H        -1.710040        -0.689181        -0.932273
 H        -0.625172         3.211264         0.812498
 H        -2.249057         2.116460         1.392835
