19
Iteration:  2793
 O         0.490102         0.536281         0.703973
 C        -0.735537         1.010271         0.131065
 C        -0.711328         1.500630        -1.288725
 C        -1.989758         2.318121        -0.897805
 C        -2.957359         2.705149        -2.046145
 O        -3.459158         1.323574        -2.046109
 C        -2.996486         1.156443        -0.627566
 C        -1.992688         0.093531         0.041284
 C        -1.275077         2.389859         0.622934
 H         0.256800        -0.178548         1.383492
 H         0.046555         2.165832        -1.619244
 H        -0.811579         0.731180        -2.033152
 H        -3.733297         3.381375        -1.804126
 H        -2.299767         3.009877        -2.882928
 H        -3.970421         1.321044        -0.102115
 H        -2.350644        -0.360797         1.054973
 H        -1.788484        -0.871127        -0.566542
 H        -0.448240         3.196837         0.762673
 H        -2.105402         2.361981         1.277510
