19
Iteration:  1532
 O         0.271104         0.417706         0.975550
 C        -0.672349         1.051854         0.119402
 C        -0.599642         1.592388        -1.346725
 C        -1.921331         2.305844        -0.942529
 C        -3.014856         2.736207        -1.910139
 O        -3.432014         1.322417        -2.003923
 C        -2.897231         1.062553        -0.635569
 C        -1.963688         0.064443        -0.149357
 C        -1.368693         2.430585         0.510863
 H         1.128247         0.248483         0.470889
 H         0.168446         2.384531        -1.557411
 H        -0.776088         0.907720        -2.171097
 H        -3.868603         3.328138        -1.560479
 H        -2.759935         3.147111        -2.914586
 H        -3.927964         1.185062        -0.114598
 H        -2.319399        -0.574644         0.804529
 H        -1.692654        -0.736456        -0.964411
 H        -0.782934         3.349662         0.591258
 H        -1.955066         2.586015         1.350860
