19
Iteration:  3644charge 0 multiplicity 1
 O         0.355725         0.576054         0.733120
 C        -0.768521         0.967645         0.079579
 C        -0.661053         1.508361        -1.356383
 C        -1.902548         2.295929        -0.855757
 C        -2.902904         2.636383        -2.019183
 O        -3.461405         1.306472        -2.033165
 C        -2.892533         1.163585        -0.645452
 C        -2.123975         0.076520         0.070043
 C        -1.298115         2.330086         0.563575
 H         0.756452         1.248658         1.262799
 H         0.263448         2.170903        -1.417951
 H        -0.714031         0.834554        -2.190676
 H        -3.787821         3.341512        -1.904347
 H        -2.374255         2.922852        -2.902751
 H        -3.752117         1.434928        -0.033657
 H        -2.382267         0.102635         1.206573
 H        -1.914680        -0.960026        -0.265334
 H        -0.509297         3.108837         0.697373
 H        -1.915140         2.522471         1.525549
