19
Iteration:  1756charge 0 multiplicity 1
 O         0.437436         0.550865         0.892823
 C        -0.681985         0.902780         0.125228
 C        -0.679762         1.533600        -1.411975
 C        -1.975038         2.238283        -0.910782
 C        -3.036202         2.786120        -1.887972
 O        -3.415982         1.337981        -2.119119
 C        -2.959104         1.127673        -0.660898
 C        -1.984672         0.054642         0.064320
 C        -1.312570         2.445196         0.473439
 H         0.363909        -0.340829         1.173439
 H        -0.010867         2.402224        -1.731856
 H        -0.736061         0.750636        -2.269078
 H        -3.882043         3.335373        -1.407230
 H        -2.535991         3.372338        -2.666674
 H        -3.873320         1.419446        -0.060060
 H        -2.516646        -0.201308         1.124992
 H        -1.775883        -0.875379        -0.521740
 H        -0.465396         3.070916         0.325885
 H        -1.965931         2.385387         1.376210
