19
Iteration:  3526charge 0 multiplicity 1
 O         0.459110         0.610772         0.754879
 C        -0.756893         1.040364         0.180172
 C        -0.713139         1.495375        -1.264265
 C        -1.959042         2.227814        -0.798126
 C        -2.906335         2.707023        -2.001952
 O        -3.426490         1.397362        -2.093522
 C        -2.986954         1.002581        -0.664306
 C        -2.054307        -0.021876         0.030880
 C        -1.313598         2.494167         0.522463
 H         0.616943        -0.353299         0.838344
 H         0.090570         2.204154        -1.525069
 H        -0.842312         0.856647        -2.100142
 H        -3.772402         3.474897        -1.898782
 H        -2.389571         2.880478        -2.952989
 H        -3.815832         1.329501        -0.005521
 H        -2.450711        -0.603451         1.008057
 H        -1.761912        -0.824027        -0.615977
 H        -0.649484         3.310469         0.423803
 H        -1.874647         2.852086         1.411335
