19
Iteration:  3595
 O         0.224881         0.411784         0.911584
 C        -0.734683         1.032456         0.126537
 C        -0.585593         1.567556        -1.260373
 C        -1.970587         2.249331        -0.927763
 C        -3.013040         2.653257        -1.976075
 O        -3.550711         1.250224        -1.956544
 C        -2.881973         1.124478        -0.658706
 C        -1.914290         0.120657        -0.070823
 C        -1.269814         2.559426         0.441457
 H         1.157438         0.522196         0.525465
 H         0.304601         2.109637        -1.555657
 H        -0.699996         0.746356        -2.083971
 H        -3.596770         3.630311        -1.702384
 H        -2.474192         2.860481        -3.006193
 H        -3.627460         1.416669         0.054844
 H        -2.306191        -0.509185         0.688166
 H        -1.533990        -0.582239        -0.815091
 H        -0.409265         3.241851         0.441431
 H        -1.790309         2.875361         1.314312
