19
Iteration:  1505charge 0 multiplicity 1
 O         0.375315         0.676320         0.877871
 C        -0.784189         0.952711         0.151328
 C        -0.649218         1.538820        -1.274671
 C        -1.940992         2.256523        -0.897245
 C        -2.931815         2.758418        -1.877901
 O        -3.489539         1.413254        -2.127520
 C        -2.888877         1.040623        -0.706542
 C        -1.959519        -0.028781        -0.052712
 C        -1.366677         2.321665         0.531892
 H         0.814959        -0.107652         0.393566
 H         0.064085         2.326502        -1.421510
 H        -0.786401         0.794507        -2.067435
 H        -3.780553         3.343742        -1.454655
 H        -2.535642         3.227063        -2.780382
 H        -3.867921         1.138603        -0.191849
 H        -2.342451        -0.325442         0.842017
 H        -1.709389        -0.888727        -0.595595
 H        -0.414617         2.962102         0.556653
 H        -1.974118         2.620792         1.447260
