19
Iteration:  1477
 O         0.504500         0.648385         0.792973
 C        -0.748400         0.974572         0.104929
 C        -0.666620         1.533182        -1.298331
 C        -1.976051         2.295538        -0.833444
 C        -2.905935         2.744110        -1.910617
 O        -3.356026         1.297156        -2.080928
 C        -2.981273         1.140955        -0.661510
 C        -2.083327         0.013850        -0.107120
 C        -1.431402         2.373971         0.609180
 H         0.526268        -0.377210         0.944082
 H        -0.061825         2.466355        -1.498501
 H        -0.753225         0.802724        -2.108267
 H        -3.848000         3.233355        -1.629999
 H        -2.335015         3.131161        -2.780108
 H        -3.907458         1.328817        -0.124316
 H        -2.476436        -0.472168         0.934853
 H        -1.820617        -0.869494        -0.856848
 H        -0.608816         3.101090         0.748097
 H        -2.178996         2.218604         1.362275
