19
Iteration:  2529
 O         0.404747         0.378600         0.902245
 C        -0.675986         0.957560         0.145481
 C        -0.663353         1.538810        -1.383664
 C        -1.918874         2.314189        -0.938335
 C        -3.022019         2.714106        -1.908577
 O        -3.531922         1.327551        -1.972796
 C        -2.961011         1.148817        -0.663097
 C        -1.938179         0.008907        -0.059889
 C        -1.281926         2.548310         0.384511
 H         0.339661         0.879925         1.781124
 H         0.132611         2.212735        -1.703226
 H        -0.876527         0.832862        -2.213433
 H        -3.811606         3.448477        -1.512237
 H        -2.666393         3.223553        -2.907202
 H        -3.661363         1.306040         0.129395
 H        -2.345924        -0.399087         0.827879
 H        -1.767499        -0.831910        -0.755883
 H        -0.482884         3.285944         0.420616
 H        -1.900804         2.563345         1.365798
