19
Iteration:  4664charge 0 multiplicity 1
 O         0.318155         0.386917         0.845013
 C        -0.777909         1.081215         0.165273
 C        -0.664641         1.734245        -1.249833
 C        -2.061489         2.280271        -0.866390
 C        -2.971661         2.732619        -1.977623
 O        -3.374800         1.283803        -2.094666
 C        -2.871658         1.017017        -0.687319
 C        -1.874524         0.010422        -0.089470
 C        -1.402939         2.400776         0.584457
 H         1.144902         0.835683         0.953297
 H         0.140176         2.579190        -1.479812
 H        -0.799806         1.096994        -2.155509
 H        -3.795793         3.439481        -1.596246
 H        -2.653600         3.113361        -2.994328
 H        -3.780876         1.206469        -0.117280
 H        -2.305832        -0.348362         0.891733
 H        -1.518837        -0.691933        -0.777276
 H        -0.554085         3.205255         0.449906
 H        -2.088551         2.339906         1.494684
