19
Iteration:  2673charge 0 multiplicity 1
 O         0.447702         0.580028         0.670535
 C        -0.763533         1.031647         0.168653
 C        -0.678186         1.429335        -1.304686
 C        -1.923253         2.252746        -0.944521
 C        -2.896853         2.716381        -2.011147
 O        -3.529831         1.316781        -1.967933
 C        -3.014417         1.168351        -0.653105
 C        -1.995845         0.033258        -0.042398
 C        -1.297872         2.457595         0.669411
 H         0.225653         0.178080         1.483960
 H         0.278445         1.920384        -1.363823
 H        -0.633228         0.747506        -2.114556
 H        -3.758458         3.335591        -1.753181
 H        -2.339467         2.984375        -2.977412
 H        -3.817496         1.506169        -0.028247
 H        -2.260216        -0.485138         0.804498
 H        -1.651177        -0.798551        -0.679179
 H        -0.441624         3.232006         0.604292
 H        -2.063978         2.559843         1.413623
