19
Iteration:    24charge 0 multiplicity 1
 O         0.503815         0.280277         0.854261
 C        -0.709260         1.010406         0.186731
 C        -0.590731         1.675191        -1.235024
 C        -2.010964         2.256059        -0.886210
 C        -3.129567         2.722073        -1.858574
 O        -3.469520         1.271336        -2.090938
 C        -2.928351         1.110337        -0.706698
 C        -1.884587         0.011861        -0.234608
 C        -1.470944         2.629584         0.520630
 H         0.815499         0.890792         1.664734
 H         0.221971         2.357880        -1.448372
 H        -0.528005         0.911645        -2.041476
 H        -3.883564         3.222033        -1.309214
 H        -2.834681         3.207668        -2.828318
 H        -3.731487         1.276201         0.010153
 H        -2.324725        -0.642371         0.455826
 H        -1.482498        -0.550097        -1.074571
 H        -0.653892         3.425591         0.716356
 H        -2.067811         2.673310         1.424481
