19
Iteration:  3619charge 0 multiplicity 1
 O         0.411127         0.470879         0.825345
 C        -0.721667         1.009086         0.143699
 C        -0.694956         1.509189        -1.290934
 C        -1.935646         2.238919        -0.925353
 C        -2.842973         2.682403        -2.090692
 O        -3.516266         1.310809        -1.943314
 C        -3.009831         1.182033        -0.574925
 C        -2.038741         0.014000        -0.023897
 C        -1.350975         2.472372         0.471948
 H         1.078990         1.167913         1.019685
 H         0.157082         2.210373        -1.423400
 H        -0.608284         0.807198        -2.207742
 H        -3.629738         3.551041        -1.851626
 H        -2.427991         2.912311        -3.158974
 H        -3.773033         1.413115         0.092711
 H        -2.258259        -0.434254         0.869214
 H        -1.614158        -0.787705        -0.682748
 H        -0.621991         3.303084         0.708866
 H        -2.103019         2.641854         1.229705
