19
Iteration:  4284charge 0 multiplicity 1
 O         0.273487         0.357458         0.856970
 C        -0.753111         1.042996         0.077792
 C        -0.554037         1.669192        -1.320785
 C        -1.931714         2.319763        -0.868795
 C        -3.053186         2.644508        -1.902317
 O        -3.352764         1.207312        -2.027932
 C        -2.924157         1.124502        -0.692135
 C        -1.944166         0.158988        -0.098604
 C        -1.375473         2.412750         0.528212
 H         0.986172         0.994672         0.990011
 H         0.223712         2.548045        -1.271626
 H        -0.440460         1.004513        -2.189158
 H        -3.916215         3.102221        -1.434627
 H        -3.004074         3.251897        -2.867412
 H        -3.797845         1.534592        -0.026330
 H        -2.400486        -0.279814         0.834273
 H        -1.792607        -0.597650        -0.856551
 H        -0.642256         3.222882         0.694175
 H        -2.129243         2.292632         1.403010
