19
Iteration:  4524
 O         0.258273         0.330218         0.877571
 C        -0.710218         1.018309         0.055142
 C        -0.645720         1.768558        -1.230702
 C        -1.984006         2.312652        -0.862021
 C        -3.061555         2.639318        -1.887461
 O        -3.315807         1.191242        -2.140859
 C        -2.919050         1.186404        -0.683719
 C        -1.886067         0.053907        -0.103912
 C        -1.404864         2.456920         0.560613
 H         1.051986         0.803089         0.756525
 H         0.194467         2.495998        -1.301333
 H        -0.566499         1.295161        -2.177256
 H        -3.969499         3.116800        -1.490137
 H        -2.697632         3.230605        -2.787059
 H        -3.731570         1.401108         0.115100
 H        -2.228325        -0.356530         0.979505
 H        -1.697412        -0.757591        -0.892440
 H        -0.563691         3.212740         0.672950
 H        -2.148973         2.564958         1.381020
