19
Iteration:   753
 O         0.355338         0.511546         0.743856
 C        -0.779234         1.000999         0.110212
 C        -0.593543         1.623008        -1.307775
 C        -1.970190         2.290890        -0.869934
 C        -3.044852         2.765087        -1.971115
 O        -3.405926         1.238205        -1.984973
 C        -2.913300         1.103235        -0.659192
 C        -1.943723         0.036843        -0.153057
 C        -1.311359         2.417499         0.614077
 H         0.078261         0.247227         1.686226
 H         0.346743         2.342074        -1.289325
 H        -0.600768         0.943037        -2.249025
 H        -3.938051         3.347478        -1.569441
 H        -2.754925         3.069283        -2.992985
 H        -3.684485         1.369265         0.112699
 H        -2.339982        -0.457832         0.775928
 H        -1.621818        -0.668188        -0.921303
 H        -0.459403         3.185908         0.891102
 H        -2.151713         2.369764         1.470641
