19
Iteration:  2788charge 0 multiplicity 1
 O         0.415536         0.543417         0.692160
 C        -0.697264         1.061044         0.156309
 C        -0.694097         1.458296        -1.288948
 C        -1.970023         2.284729        -0.873955
 C        -2.975248         2.739606        -2.033685
 O        -3.449058         1.292322        -2.046317
 C        -2.979009         1.148732        -0.659526
 C        -2.009804         0.093633         0.058396
 C        -1.253067         2.392558         0.603750
 H         0.294013        -0.053274         1.389919
 H         0.102235         2.186938        -1.674586
 H        -0.745221         0.842085        -2.249805
 H        -3.793784         3.478946        -1.668466
 H        -2.430210         3.152144        -2.887526
 H        -3.901777         1.218045        -0.090145
 H        -2.447943        -0.406295         0.945467
 H        -1.763866        -0.752343        -0.541925
 H        -0.452380         3.040062         0.630545
 H        -1.992230         2.379410         1.482582
