19
Iteration:  1119
 O         0.490285         0.568519         0.750817
 C        -0.690529         1.087665         0.134049
 C        -0.736178         1.516107        -1.274303
 C        -2.020724         2.176426        -0.812455
 C        -2.908567         2.713469        -1.862743
 O        -3.365517         1.410733        -2.162231
 C        -2.978954         1.045230        -0.707772
 C        -2.089525         0.004306         0.013311
 C        -1.346338         2.421029         0.483487
 H         0.362918         0.474542         1.659054
 H         0.047202         2.211560        -1.559027
 H        -0.804716         0.827228        -2.104479
 H        -3.721411         3.340641        -1.460880
 H        -2.570376         3.281722        -2.759685
 H        -3.915786         1.113166         0.043043
 H        -2.419461        -0.503582         0.994163
 H        -1.810255        -0.861873        -0.592183
 H        -0.512983         3.139336         0.584402
 H        -2.007395         2.339340         1.306648
