19
Iteration:  1018
 O         0.451372         0.573820         0.731554
 C        -0.722497         1.019414         0.149730
 C        -0.707373         1.560500        -1.253098
 C        -1.996597         2.282123        -0.860652
 C        -2.854437         2.763051        -2.025788
 O        -3.564835         1.280288        -2.023690
 C        -2.941679         1.115509        -0.637288
 C        -1.932925        -0.002065        -0.075675
 C        -1.362926         2.415641         0.578964
 H         0.236463        -0.178786         1.369396
 H         0.066671         2.278296        -1.436636
 H        -0.765841         0.757961        -1.983586
 H        -3.589739         3.523681        -1.868406
 H        -2.274564         2.835057        -2.930818
 H        -3.669129         1.191023         0.289009
 H        -2.358573        -0.424707         0.786819
 H        -1.662560        -0.581714        -0.865767
 H        -0.571166         3.175891         0.610652
 H        -1.989690         2.508480         1.407472
