19
Iteration:  2579charge 0 multiplicity 1
 O         0.533671         0.558686         0.659097
 C        -0.745995         0.970762         0.127060
 C        -0.645159         1.513538        -1.301757
 C        -1.914063         2.244524        -0.860412
 C        -2.835321         2.631343        -1.993233
 O        -3.523523         1.325853        -1.973627
 C        -2.988978         1.138098        -0.545508
 C        -2.111249         0.077431        -0.059567
 C        -1.400087         2.483747         0.537349
 H         0.254700         0.237397         1.552496
 H         0.194665         2.264649        -1.300956
 H        -0.480172         0.854556        -2.183009
 H        -3.577578         3.416321        -1.798551
 H        -2.329355         2.796334        -2.930643
 H        -3.697858         1.600604         0.265419
 H        -2.474742        -0.569514         0.864287
 H        -2.188009        -0.699334        -0.835900
 H        -0.583561         3.184799         0.520306
 H        -2.199591         2.645149         1.249594
