19
Iteration:  4466
 O         0.475802         0.560395         0.825988
 C        -0.742001         0.970913         0.115385
 C        -0.661450         1.632629        -1.264235
 C        -1.912314         2.202007        -0.828177
 C        -2.958059         2.722177        -1.964686
 O        -3.390337         1.306172        -2.036941
 C        -2.938466         1.068601        -0.762122
 C        -2.101133        -0.007224        -0.154136
 C        -1.468011         2.395684         0.609432
 H         0.946557         1.456423         0.961639
 H         0.250561         2.271986        -1.126877
 H        -0.635130         0.925784        -2.123111
 H        -3.589770         3.473370        -1.531707
 H        -2.370977         3.136532        -2.741448
 H        -3.747106         1.326685         0.026173
 H        -2.572630        -0.558792         0.731759
 H        -1.831233        -0.757661        -0.904144
 H        -0.780961         3.335783         0.898042
 H        -2.271146         2.295728         1.385458
