19
Iteration:  1527charge 0 multiplicity 1
 O         0.271805         0.463194         0.959347
 C        -0.670352         1.073035         0.125429
 C        -0.598434         1.541509        -1.364811
 C        -1.954140         2.277355        -0.907639
 C        -3.011730         2.763401        -1.905852
 O        -3.451999         1.329939        -2.036185
 C        -2.927499         1.049661        -0.678551
 C        -1.930434         0.049387        -0.129942
 C        -1.334547         2.428213         0.538144
 H         1.018621         0.203853         0.468729
 H         0.192741         2.265346        -1.434931
 H        -0.746655         0.790980        -2.163034
 H        -3.829292         3.374724        -1.439585
 H        -2.662724         3.139486        -2.867067
 H        -3.863483         1.303878        -0.099311
 H        -2.263777        -0.465540         0.678976
 H        -1.644848        -0.693257        -0.815308
 H        -0.693904         3.390442         0.581087
 H        -2.113466         2.404870         1.427313
