19
Iteration:  1239
 O         0.474878         0.679378         0.800244
 C        -0.708020         0.973736         0.139037
 C        -0.642312         1.519095        -1.304475
 C        -1.933497         2.143591        -0.874469
 C        -2.970956         2.724216        -1.868068
 O        -3.418763         1.395684        -2.117954
 C        -2.927582         1.089417        -0.674199
 C        -2.077265         0.030582        -0.071748
 C        -1.413640         2.353075         0.538072
 H         0.308806         0.043185         1.595669
 H         0.083885         2.375279        -1.319871
 H        -0.545860         0.993064        -2.275214
 H        -3.754449         3.345038        -1.386361
 H        -2.662779         3.189445        -2.843876
 H        -3.613105         1.518694         0.004616
 H        -2.489881        -0.698169         0.788977
 H        -2.011819        -0.752516        -0.812536
 H        -0.568802         3.077534         0.594685
 H        -2.170837         2.304990         1.343159
