19
Iteration:  3100
 O         0.212829         0.253652         0.851028
 C        -0.699306         1.106999         0.115113
 C        -0.561816         1.702561        -1.308761
 C        -1.944249         2.291848        -0.892642
 C        -2.989684         2.600416        -1.936571
 O        -3.442379         1.212035        -2.031793
 C        -2.885666         1.171440        -0.580827
 C        -1.959490         0.154099        -0.110122
 C        -1.347979         2.508793         0.498303
 H         1.153047         0.315024         0.485913
 H         0.141926         2.554697        -1.265519
 H        -0.550353         1.005695        -2.177145
 H        -3.849354         3.252128        -1.555545
 H        -2.680599         3.251328        -2.845671
 H        -3.655459         1.434299         0.206287
 H        -2.378539        -0.250147         0.798921
 H        -1.725542        -0.673050        -0.803046
 H        -0.532053         3.244421         0.735052
 H        -2.210517         2.564610         1.123739
