19
Iteration:  5000charge 0 multiplicity 1
 O         0.241728         0.272768         0.817719
 C        -0.702471         1.135373         0.111216
 C        -0.617242         1.694170        -1.268897
 C        -2.004491         2.327878        -0.789827
 C        -3.129206         2.678969        -2.002720
 O        -3.341971         1.220290        -2.103497
 C        -2.883211         1.113740        -0.798245
 C        -1.873656         0.074349        -0.048342
 C        -1.365543         2.485707         0.660809
 H         1.093171         0.599206         1.061508
 H         0.089458         2.507317        -1.459595
 H        -0.678067         1.021508        -2.101404
 H        -3.838253         3.337674        -1.457950
 H        -2.825048         3.008362        -3.044701
 H        -3.831621         1.272428        -0.131548
 H        -2.248496        -0.399645         0.986838
 H        -1.389127        -0.628664        -0.728835
 H        -0.644102         3.402089         0.671651
 H        -1.832072         2.453728         1.626581
