19
Iteration:    63charge 0 multiplicity 1
 O         0.266380         0.581778         0.936675
 C        -0.737665         1.046192         0.006628
 C        -0.590970         1.706660        -1.410857
 C        -1.949096         2.304334        -0.830756
 C        -2.964214         2.692776        -1.852287
 O        -3.461240         1.266524        -1.993902
 C        -2.887137         1.057651        -0.721052
 C        -1.904749         0.031384        -0.226916
 C        -1.435363         2.297333         0.659107
 H         1.100664         0.496720         0.440476
 H         0.177168         2.487867        -1.406578
 H        -0.733348         1.050245        -2.256993
 H        -3.821229         3.414085        -1.577537
 H        -2.601374         3.099999        -2.762912
 H        -3.642845         1.450031         0.058045
 H        -2.098669        -0.495821         0.774344
 H        -1.588410        -0.816167        -0.878769
 H        -0.584330         2.887937         0.858011
 H        -2.080480         1.815076         1.407974
