19
Iteration:  1716
 O         0.429857         0.556026         0.816009
 C        -0.815814         0.986468         0.165735
 C        -0.665057         1.561499        -1.287559
 C        -1.959513         2.314599        -0.905507
 C        -2.894307         2.714326        -2.024460
 O        -3.537407         1.338671        -1.936480
 C        -2.870952         1.189636        -0.604866
 C        -1.972097        -0.077707        -0.121377
 C        -1.375830         2.444175         0.479182
 H         0.531896        -0.423684         1.069517
 H         0.252581         2.135331        -1.310074
 H        -0.779100         0.808547        -2.031399
 H        -3.599070         3.557573        -1.915473
 H        -2.532601         2.709662        -3.049660
 H        -3.536091         1.487522         0.255859
 H        -2.321561        -0.582431         0.661861
 H        -1.688789        -0.844209        -0.841885
 H        -0.422111         3.144350         0.715359
 H        -2.158456         2.700593         1.184944
