19
Iteration:  2913charge 0 multiplicity 1
 O         0.528322         0.586216         0.754511
 C        -0.778917         0.918987         0.202009
 C        -0.656315         1.475274        -1.319188
 C        -1.912757         2.234063        -0.858783
 C        -2.942610         2.750361        -1.944466
 O        -3.486435         1.403725        -2.037681
 C        -2.948415         1.087843        -0.709842
 C        -2.033026        -0.013180        -0.068902
 C        -1.382013         2.460461         0.544584
 H         0.454619         0.643953         1.725889
 H         0.246720         2.033604        -1.448155
 H        -0.863470         0.706271        -2.018481
 H        -3.784276         3.317650        -1.450204
 H        -2.718383         3.148498        -2.981494
 H        -3.778164         1.240496         0.053174
 H        -2.569213        -0.537496         0.869233
 H        -1.697909        -0.765790        -0.915112
 H        -0.595352         3.319832         0.471013
 H        -2.122574         2.686248         1.296725
