19
Iteration:  1406
 O         0.386271         0.449444         0.700415
 C        -0.757129         1.053624         0.173218
 C        -0.583859         1.618036        -1.263942
 C        -1.961785         2.316537        -0.890582
 C        -2.993219         2.727370        -1.928763
 O        -3.406937         1.269830        -2.051836
 C        -2.853539         1.110898        -0.638853
 C        -1.960884         0.024351        -0.129112
 C        -1.446221         2.450783         0.595878
 H         0.219252         0.319568         1.708458
 H         0.250501         2.316886        -1.342156
 H        -0.464338         0.831262        -2.006508
 H        -3.856744         3.256288        -1.480823
 H        -2.744296         3.069071        -2.925261
 H        -3.799860         1.369611        -0.011567
 H        -2.375908        -0.546536         0.704929
 H        -1.713016        -0.683727        -0.913075
 H        -0.728959         3.188841         0.904043
 H        -2.382539         2.347444         1.184814
