19
Iteration:  1856charge 0 multiplicity 1
 O         0.387111         0.540346         0.860362
 C        -0.702330         0.980540         0.121126
 C        -0.616401         1.451164        -1.278012
 C        -1.937884         2.203067        -0.879349
 C        -2.896445         2.686020        -1.999466
 O        -3.580173         1.391212        -1.952194
 C        -2.947116         1.131745        -0.644816
 C        -2.041033         0.061287        -0.069420
 C        -1.352288         2.445710         0.460592
 H         1.161122         0.889673         0.315626
 H         0.175265         2.257876        -1.437512
 H        -0.481885         0.618507        -2.020698
 H        -3.587630         3.437495        -1.588264
 H        -2.532250         3.090977        -2.922884
 H        -3.636591         1.441589         0.033023
 H        -2.233937        -0.559175         0.825783
 H        -1.807048        -0.763056        -0.794059
 H        -0.567397         3.236064         0.588848
 H        -2.101426         2.525184         1.171347
