19
Iteration:  3435charge 0 multiplicity 1
 O         0.323165         0.446079         0.836622
 C        -0.712251         1.041662         0.165362
 C        -0.648138         1.503856        -1.305406
 C        -2.010296         2.278661        -0.885349
 C        -2.966793         2.754477        -1.900787
 O        -3.524244         1.325739        -2.125197
 C        -2.872700         1.061112        -0.691173
 C        -1.866091         0.039986        -0.065377
 C        -1.334553         2.468044         0.529993
 H         0.437480         1.032804         1.642918
 H         0.080164         2.227935        -1.577939
 H        -0.775644         0.845406        -2.159507
 H        -3.815255         3.361041        -1.572617
 H        -2.462872         3.049628        -2.793998
 H        -3.712114         1.208675         0.029525
 H        -2.153352        -0.443488         0.900557
 H        -1.581711        -0.822926        -0.839196
 H        -0.559369         3.272323         0.665891
 H        -1.927013         2.735987         1.370685
