19
Iteration:   685charge 0 multiplicity 1
 O         0.391905         0.484097         0.834877
 C        -0.760625         0.987427         0.137491
 C        -0.721421         1.671254        -1.319659
 C        -1.978195         2.229728        -0.826808
 C        -2.903141         2.758620        -1.952813
 O        -3.480527         1.345050        -2.047758
 C        -2.920523         1.017709        -0.722079
 C        -1.899509        -0.012066        -0.086078
 C        -1.398386         2.389914         0.602636
 H         1.027631         1.076528         0.494772
 H         0.213037         2.315452        -1.337759
 H        -0.788460         1.057866        -2.255030
 H        -3.701069         3.399659        -1.533789
 H        -2.454624         3.205780        -2.863551
 H        -3.795821         1.153393        -0.151621
 H        -2.313185        -0.312697         0.837289
 H        -1.512294        -0.830900        -0.645990
 H        -0.690113         3.211032         0.637969
 H        -2.202460         2.534998         1.456161
