19
Iteration:    65
 O         0.292866         0.594357         0.946363
 C        -0.718640         1.041932         0.015299
 C        -0.611524         1.702732        -1.415623
 C        -1.942351         2.311740        -0.820987
 C        -2.965558         2.680152        -1.867049
 O        -3.456724         1.287992        -2.007608
 C        -2.897551         1.060410        -0.694645
 C        -1.918637         0.020462        -0.224119
 C        -1.437296         2.277160         0.661884
 H         1.041408         0.450923         0.420116
 H         0.166768         2.464918        -1.464336
 H        -0.725603         1.101753        -2.305419
 H        -3.826109         3.379487        -1.609471
 H        -2.603747         3.075378        -2.810315
 H        -3.689220         1.424853        -0.002742
 H        -2.088308        -0.507084         0.742343
 H        -1.630010        -0.790394        -0.931144
 H        -0.665345         2.868032         0.914772
 H        -2.078288         1.879081         1.397927
