19
Iteration:  4046
 O         0.299272         0.552292         0.922584
 C        -0.793027         1.004286         0.148407
 C        -0.643481         1.604014        -1.406853
 C        -1.901994         2.326563        -0.964888
 C        -3.124254         2.657192        -1.911966
 O        -3.328616         1.239403        -2.002818
 C        -2.907265         1.180328        -0.670732
 C        -1.920519         0.045983        -0.139816
 C        -1.253869         2.414981         0.565844
 H         0.289075        -0.405774         1.028299
 H         0.122052         2.372003        -1.647471
 H        -0.869463         0.880101        -2.145331
 H        -4.094031         3.079948        -1.390238
 H        -2.977249         3.081028        -2.964040
 H        -3.750613         1.486450         0.124342
 H        -2.284450        -0.278424         0.866522
 H        -1.685769        -0.762578        -0.875634
 H        -0.534999         3.183817         0.543862
 H        -1.818407         2.495878         1.527075
