19
Iteration:  3740charge 0 multiplicity 1
 O         0.408787         0.583091         0.900479
 C        -0.718767         0.992808         0.149283
 C        -0.592924         1.469865        -1.349955
 C        -1.944666         2.281734        -0.945622
 C        -2.901368         2.698677        -2.139751
 O        -3.578714         1.310462        -1.928616
 C        -2.908803         1.172407        -0.656038
 C        -2.020144         0.030085        -0.032818
 C        -1.392930         2.379875         0.599715
 H         1.103268         0.441055         0.280393
 H         0.204060         2.272503        -1.268553
 H        -0.662504         0.783421        -2.225516
 H        -3.622952         3.463160        -1.756075
 H        -2.482161         2.798061        -3.179215
 H        -3.656312         1.533166         0.167259
 H        -2.543099        -0.287848         0.778815
 H        -1.800834        -0.745111        -0.783190
 H        -0.559636         3.040504         0.878713
 H        -2.124409         2.694007         1.290398
