19
Iteration:   806charge 0 multiplicity 1
 O         0.409260         0.603886         0.728850
 C        -0.820151         0.989300         0.136300
 C        -0.764495         1.632300        -1.250961
 C        -2.011874         2.275155        -0.849503
 C        -2.870134         2.678132        -1.970909
 O        -3.402259         1.330921        -2.044974
 C        -2.906022         1.136588        -0.674090
 C        -1.903607        -0.017902        -0.002522
 C        -1.380056         2.336329         0.571873
 H         0.444760        -0.386293         0.504946
 H         0.139868         2.261124        -1.438993
 H        -0.718334         0.962919        -2.115731
 H        -3.747194         3.338964        -1.550496
 H        -2.511302         3.127802        -2.930662
 H        -3.782783         1.392421        -0.035107
 H        -2.354539        -0.304612         0.930131
 H        -1.624948        -0.738037        -0.716326
 H        -0.644999         3.086889         0.667713
 H        -2.047539         2.543885         1.442532
