19
Iteration:  4910
 O         0.337094         0.393952         0.846486
 C        -0.683479         1.051979         0.135270
 C        -0.609435         1.713437        -1.252959
 C        -2.041321         2.299988        -0.857202
 C        -2.953902         2.695762        -1.959357
 O        -3.451763         1.307358        -2.086662
 C        -2.909836         1.018167        -0.675144
 C        -1.910398         0.042818        -0.123221
 C        -1.459099         2.389709         0.559695
 H         1.076430         1.055575         0.836097
 H        -0.152638         2.696256        -1.286850
 H        -0.313428         1.051168        -2.077688
 H        -3.697216         3.489879        -1.810542
 H        -2.400392         2.927816        -2.906983
 H        -3.727999         1.253440        -0.004496
 H        -2.267206        -0.280270         0.862284
 H        -1.685800        -0.893218        -0.687506
 H        -0.591410         3.009364         0.862840
 H        -2.214992         2.513200         1.351398
