19
Iteration:  4599
 O         0.307385         0.473520         0.853996
 C        -0.701207         1.027245         0.094278
 C        -0.674137         1.683153        -1.263972
 C        -1.990800         2.300197        -0.759425
 C        -2.929599         2.678601        -1.971650
 O        -3.461379         1.292549        -2.120889
 C        -2.897642         1.030973        -0.744471
 C        -1.911864         0.019327        -0.142224
 C        -1.413832         2.437325         0.651127
 H         1.020392         1.194249         0.849186
 H         0.248123         2.377845        -1.407841
 H        -0.757534         0.998250        -2.124417
 H        -3.706708         3.328647        -1.588904
 H        -2.472589         2.967364        -2.935696
 H        -3.741227         1.140000         0.007064
 H        -2.234511        -0.383536         0.910724
 H        -1.768580        -0.855847        -0.787232
 H        -0.479860         3.159394         0.616896
 H        -2.034550         2.286416         1.586973
