19
Iteration:  2910
 O         0.500675         0.595107         0.763264
 C        -0.791529         0.939723         0.187748
 C        -0.645052         1.453260        -1.306338
 C        -1.920732         2.244061        -0.898603
 C        -2.947068         2.768327        -1.914634
 O        -3.485533         1.390982        -2.046480
 C        -2.945417         1.089923        -0.708424
 C        -2.033902        -0.026376        -0.070640
 C        -1.360800         2.471810         0.551834
 H         0.515809         0.683890         1.702649
 H         0.270387         2.076643        -1.506992
 H        -0.854785         0.685634        -2.128122
 H        -3.774791         3.325372        -1.389992
 H        -2.645375         3.150300        -2.881443
 H        -3.801012         1.112523         0.100268
 H        -2.517558        -0.487254         0.765340
 H        -1.681304        -0.805559        -0.775762
 H        -0.579547         3.196689         0.428854
 H        -2.049125         2.595409         1.341765
