19
Iteration:  1360
 O         0.475666         0.636630         0.841727
 C        -0.692991         1.019847         0.166396
 C        -0.648224         1.588908        -1.338301
 C        -2.042352         2.160452        -0.844624
 C        -2.907307         2.775195        -1.899584
 O        -3.407588         1.407024        -2.127407
 C        -3.045919         0.973973        -0.611124
 C        -1.992812        -0.013894        -0.112928
 C        -1.405208         2.373305         0.517958
 H         0.206586        -0.138922         1.392498
 H         0.052893         2.445992        -1.581487
 H        -0.770577         0.867764        -2.165567
 H        -3.678235         3.476688        -1.550720
 H        -2.276004         3.120056        -2.753113
 H        -4.001327         1.379325         0.011948
 H        -2.134434        -0.545379         0.751232
 H        -1.680597        -0.742952        -0.768067
 H        -0.599597         3.093760         0.395131
 H        -2.000119         2.413590         1.524704
