19
Iteration:  2569charge 0 multiplicity 1
 O         0.475329         0.589863         0.664540
 C        -0.763783         0.971548         0.106412
 C        -0.583146         1.492948        -1.296973
 C        -1.955060         2.162623        -0.860185
 C        -2.812058         2.630652        -1.971546
 O        -3.550692         1.355100        -1.917429
 C        -3.040573         1.212838        -0.599275
 C        -2.063040         0.052408        -0.078647
 C        -1.368519         2.417463         0.486247
 H         0.494067         0.525730         1.615030
 H         0.140993         2.287171        -1.240338
 H        -0.525050         0.851285        -2.183919
 H        -3.391879         3.525074        -1.802592
 H        -2.382937         2.729804        -2.923016
 H        -3.899024         1.584443         0.080232
 H        -2.439493        -0.311407         0.976003
 H        -1.605149        -0.662006        -0.729674
 H        -0.662792         3.190485         0.695036
 H        -2.104363         2.468825         1.342739
