19
Iteration:  3705charge 0 multiplicity 1
 O         0.224193         0.378903         0.859843
 C        -0.767835         1.043998         0.115584
 C        -0.672234         1.587165        -1.357178
 C        -1.915330         2.293581        -0.933486
 C        -2.951243         2.664755        -1.986546
 O        -3.422458         1.185397        -1.979363
 C        -2.888958         1.129218        -0.650471
 C        -2.015089         0.144451         0.014535
 C        -1.266730         2.544345         0.524262
 H         1.068888         0.785944         0.742516
 H         0.062744         2.367779        -1.532460
 H        -0.489013         0.929654        -2.292648
 H        -3.667397         3.296735        -1.525187
 H        -2.659664         3.182935        -2.960241
 H        -3.800415         1.296303         0.090461
 H        -2.269152        -0.379582         0.939882
 H        -1.686794        -0.694490        -0.671117
 H        -0.366890         3.137605         0.318784
 H        -1.913086         2.743728         1.309507
