19
Iteration:  2809charge 0 multiplicity 1
 O         0.534459         0.499749         0.687358
 C        -0.714326         0.991374         0.126541
 C        -0.755476         1.571586        -1.309536
 C        -1.983934         2.272582        -0.791869
 C        -2.832904         2.655966        -2.086480
 O        -3.470215         1.316514        -1.994029
 C        -2.934504         1.184559        -0.595748
 C        -2.037760         0.066663         0.016330
 C        -1.472537         2.449821         0.546390
 H         0.443384        -0.321147         1.286243
 H         0.195825         2.218445        -1.395858
 H        -0.810348         1.053148        -2.367447
 H        -3.558162         3.543482        -1.961535
 H        -2.411618         2.718573        -3.110791
 H        -3.635964         1.499174         0.262530
 H        -2.489359        -0.225419         0.906952
 H        -1.943559        -0.793823        -0.552800
 H        -0.635323         3.102843         0.650119
 H        -2.015608         2.433327         1.540668
