19
Iteration:  4561charge 0 multiplicity 1
 O         0.409399         0.569164         0.810233
 C        -0.762155         0.955764         0.127843
 C        -0.696872         1.568332        -1.230763
 C        -1.988415         2.272298        -0.867612
 C        -2.908251         2.739568        -1.904168
 O        -3.429685         1.336383        -2.161180
 C        -2.889665         1.046623        -0.725224
 C        -1.940593        -0.016061        -0.093858
 C        -1.458305         2.393854         0.657831
 H         0.987778         1.332930         0.924383
 H         0.149186         2.195113        -1.380069
 H        -0.875670         0.816740        -2.050027
 H        -3.763029         3.403722        -1.536168
 H        -2.451349         3.188943        -2.797455
 H        -3.756943         1.286921        -0.154004
 H        -2.285121        -0.466140         0.766280
 H        -1.615770        -0.829295        -0.770301
 H        -0.779509         3.179323         0.787107
 H        -2.167431         2.469708         1.475002
