19
Iteration:  3634
 O         0.397450         0.540536         0.753435
 C        -0.804006         0.936169         0.129896
 C        -0.657805         1.531373        -1.333503
 C        -1.957959         2.273628        -0.895414
 C        -2.865714         2.662325        -2.033309
 O        -3.484944         1.322155        -2.004097
 C        -2.873854         1.165781        -0.616257
 C        -2.013187         0.086364         0.089034
 C        -1.369873         2.364721         0.500786
 H         0.611204         1.392038         1.077198
 H         0.199927         2.259932        -1.460311
 H        -0.672090         0.895249        -2.175945
 H        -3.589829         3.462238        -1.945247
 H        -2.349726         2.726368        -2.929529
 H        -3.680952         1.547673         0.100006
 H        -2.553688        -0.218761         1.130903
 H        -2.194366        -0.776494        -0.566443
 H        -0.445788         2.936905         0.452982
 H        -2.029492         2.318319         1.452768
