19
Iteration:  4882
 O         0.212167         0.344779         0.806877
 C        -0.755885         1.083464         0.150748
 C        -0.588998         1.698979        -1.272757
 C        -1.964432         2.388249        -0.891707
 C        -3.081555         2.659179        -1.939605
 O        -3.296030         1.182867        -2.099781
 C        -2.838472         1.092594        -0.620132
 C        -1.936496         0.025060        -0.172345
 C        -1.406798         2.491164         0.629856
 H         1.027362         0.962764         0.814280
 H         0.121429         2.562531        -1.472448
 H        -0.478780         1.014481        -2.142747
 H        -3.909389         3.205568        -1.386713
 H        -2.891018         3.100700        -2.925995
 H        -3.605792         1.463578         0.167968
 H        -2.278328        -0.472861         0.828884
 H        -1.672443        -0.679851        -0.947770
 H        -0.533312         3.101091         0.982550
 H        -2.181837         2.618913         1.378584
