19
Iteration:  2647charge 0 multiplicity 1
 O         0.429057         0.444189         0.791071
 C        -0.725282         0.954193         0.115978
 C        -0.714994         1.568971        -1.377506
 C        -1.982082         2.293887        -0.930017
 C        -3.034763         2.705700        -1.912303
 O        -3.356814         1.292992        -2.004912
 C        -2.878636         1.106188        -0.635543
 C        -2.039623         0.139098         0.032813
 C        -1.298973         2.513488         0.466107
 H         0.117772        -0.264078         1.312931
 H         0.197624         2.179541        -1.411932
 H        -0.701484         0.983557        -2.301237
 H        -3.906202         3.278882        -1.537806
 H        -2.652954         3.148231        -2.798494
 H        -3.930944         1.324578        -0.108604
 H        -2.460343        -0.197586         1.117225
 H        -1.903777        -0.838807        -0.482707
 H        -0.406799         3.108086         0.378341
 H        -2.020849         2.701256         1.357794
