19
Iteration:  1256charge 0 multiplicity 1
 O         0.519513         0.647269         0.724856
 C        -0.790072         0.970405         0.165947
 C        -0.635612         1.515986        -1.259882
 C        -2.006247         2.260787        -0.819366
 C        -2.860588         2.804619        -1.906894
 O        -3.460871         1.330478        -2.094676
 C        -3.023277         1.065340        -0.717452
 C        -1.991870        -0.052949        -0.094176
 C        -1.417628         2.394937         0.575295
 H         0.328983         0.312626         1.686971
 H         0.229440         2.127140        -1.472630
 H        -0.653009         0.710677        -2.013669
 H        -3.641425         3.506350        -1.560523
 H        -2.399454         3.270928        -2.769640
 H        -4.022362         1.157044        -0.150957
 H        -2.375548        -0.381125         0.796411
 H        -1.588399        -0.917569        -0.734385
 H        -0.605454         3.156412         0.623718
 H        -2.117829         2.504359         1.404214
