19
Iteration:  2024
 O         0.363394         0.383901         0.883350
 C        -0.744876         1.022905         0.084093
 C        -0.607534         1.483488        -1.377147
 C        -1.870114         2.311110        -0.980265
 C        -3.081530         2.729933        -1.855722
 O        -3.439629         1.245072        -1.972182
 C        -2.870110         1.136501        -0.578189
 C        -1.960262         0.129468        -0.095871
 C        -1.318815         2.597545         0.399043
 H        -0.204642        -0.245352         1.444414
 H         0.239635         2.193915        -1.647701
 H        -0.829681         0.717405        -2.160410
 H        -3.877948         3.167998        -1.264419
 H        -2.862224         3.151934        -2.883387
 H        -3.723887         1.388090         0.138163
 H        -2.316518        -0.278256         0.894644
 H        -1.734755        -0.748665        -0.733620
 H        -0.593310         3.404211         0.480149
 H        -2.042577         2.847775         1.222662
