19
Iteration:  4500charge 0 multiplicity 1
 O         0.213446         0.297838         0.838253
 C        -0.732661         1.119789         0.094002
 C        -0.666380         1.760586        -1.286578
 C        -2.047126         2.284888        -0.863279
 C        -2.996119         2.693954        -1.995241
 O        -3.346906         1.256070        -2.026884
 C        -2.871104         1.025133        -0.704847
 C        -1.874016         0.088801        -0.085718
 C        -1.354617         2.457344         0.642735
 H         1.020353         0.874012         0.902938
 H         0.130429         2.556164        -1.460989
 H        -0.591513         1.193661        -2.214211
 H        -3.832431         3.364015        -1.845108
 H        -2.497963         2.954191        -2.939333
 H        -3.742620         0.820988         0.037409
 H        -2.362166        -0.521508         0.814798
 H        -1.487586        -0.544787        -0.890183
 H        -0.627968         3.420992         0.666797
 H        -1.988159         2.439983         1.558148
