19
Iteration:  4724charge 0 multiplicity 1
 O         0.352243         0.502243         0.807841
 C        -0.765745         0.990025         0.136223
 C        -0.553513         1.598800        -1.245773
 C        -2.004471         2.316667        -0.855900
 C        -3.036444         2.734707        -1.911073
 O        -3.360369         1.286048        -2.110345
 C        -2.956653         1.088044        -0.737383
 C        -1.948117        -0.009944        -0.088871
 C        -1.433394         2.421419         0.563902
 H         0.847116         1.323522         1.090636
 H         0.258715         2.233506        -1.225827
 H        -0.581166         0.960054        -2.134588
 H        -3.711889         3.417745        -1.484788
 H        -2.551737         3.166603        -2.758700
 H        -3.790883         1.207015         0.014811
 H        -2.177018        -0.594296         0.793210
 H        -1.659731        -0.851719        -0.875459
 H        -0.701380         3.101074         0.833018
 H        -2.038460         2.338671         1.469932
