19
Iteration:  2615charge 0 multiplicity 1
 O         0.295902         0.411166         0.714222
 C        -0.711804         1.096212         0.104164
 C        -0.713028         1.565596        -1.350990
 C        -1.983105         2.305398        -0.902643
 C        -3.040339         2.652080        -1.938447
 O        -3.351961         1.248947        -2.047660
 C        -2.894102         1.113011        -0.613589
 C        -1.959874         0.196106         0.063597
 C        -1.225070         2.460395         0.539925
 H        -0.053526        -0.367769         1.229419
 H         0.110044         2.206407        -1.436279
 H        -0.802338         0.824455        -2.114956
 H        -3.935027         3.189807        -1.650664
 H        -2.633712         3.118575        -2.811983
 H        -3.856506         1.189196         0.004935
 H        -2.318875        -0.087551         1.105804
 H        -1.792046        -0.594255        -0.669590
 H        -0.373037         3.151006         0.524355
 H        -1.728376         2.738868         1.544974
