19
Iteration:  4598charge 0 multiplicity 1
 O         0.309095         0.480521         0.854799
 C        -0.694854         1.021499         0.092245
 C        -0.681251         1.685625        -1.262878
 C        -1.989381         2.299777        -0.757387
 C        -2.925652         2.677954        -1.976092
 O        -3.459835         1.300438        -2.118222
 C        -2.911138         1.020008        -0.747850
 C        -1.914148         0.011256        -0.142190
 C        -1.415535         2.433881         0.651788
 H         1.023076         1.191401         0.862469
 H         0.248482         2.378858        -1.422106
 H        -0.741702         0.975222        -2.116136
 H        -3.702436         3.356216        -1.589087
 H        -2.456624         2.974985        -2.923717
 H        -3.734303         1.165095        -0.006863
 H        -2.190143        -0.364515         0.912224
 H        -1.763995        -0.840154        -0.760098
 H        -0.489688         3.171794         0.600514
 H        -2.017939         2.287150         1.586257
