19
Iteration:   187charge 0 multiplicity 1
 O         0.417524         0.474379         0.843615
 C        -0.731775         1.050948         0.172182
 C        -0.649167         1.694115        -1.183085
 C        -2.040431         2.224882        -0.787656
 C        -2.975438         2.758462        -1.842564
 O        -3.427730         1.369164        -2.061312
 C        -2.880961         0.978339        -0.732750
 C        -1.841973        -0.071996        -0.289932
 C        -1.557068         2.465198         0.584198
 H         1.118903         0.251242         0.156240
 H        -0.050717         2.551196        -1.376582
 H        -0.539041         1.169812        -2.135368
 H        -3.796781         3.456483        -1.564296
 H        -2.377028         3.174347        -2.733146
 H        -3.762930         1.000119        -0.045884
 H        -2.206858        -0.664949         0.540394
 H        -1.508715        -0.750574        -1.108170
 H        -0.834378         3.212770         0.740613
 H        -2.372359         2.498612         1.196012
