19
Iteration:  1708
 O         0.445433         0.527206         0.835777
 C        -0.773241         0.959659         0.158861
 C        -0.676699         1.592721        -1.252069
 C        -1.891605         2.349572        -0.933521
 C        -2.910342         2.671095        -2.073971
 O        -3.549700         1.326543        -1.907626
 C        -2.905829         1.145627        -0.563166
 C        -1.986162        -0.028509        -0.149740
 C        -1.366825         2.486686         0.505351
 H         0.185456        -0.460268         0.922665
 H         0.210161         2.196971        -1.234774
 H        -0.703387         1.013119        -2.152413
 H        -3.648018         3.448925        -1.880693
 H        -2.442108         2.770592        -3.083879
 H        -3.560212         1.457380         0.139052
 H        -2.346104        -0.591252         0.800561
 H        -1.783912        -0.627463        -1.066587
 H        -0.529562         3.099971         0.469513
 H        -2.198541         2.512679         1.165886
