19
Iteration:  4812charge 0 multiplicity 1
 O         0.436146         0.541871         0.804710
 C        -0.730503         0.996259         0.166683
 C        -0.676647         1.576786        -1.243062
 C        -1.984913         2.235962        -0.853334
 C        -2.930812         2.823186        -1.995093
 O        -3.446002         1.317073        -2.095244
 C        -2.887638         1.090124        -0.714607
 C        -1.921751        -0.063221        -0.098815
 C        -1.534293         2.379910         0.634646
 H         1.062715         1.335061         0.840849
 H         0.032629         2.356131        -1.450167
 H        -0.561182         0.758102        -1.941825
 H        -3.727820         3.493945        -1.822103
 H        -2.314392         3.136688        -2.852409
 H        -3.801389         1.269494        -0.226656
 H        -2.418018        -0.348707         0.898813
 H        -1.690335        -1.051631        -0.678823
 H        -0.739365         3.070905         0.894863
 H        -2.300523         2.360792         1.449119
