19
Iteration:  3138charge 0 multiplicity 1
 O         0.377084         0.583880         0.792872
 C        -0.791345         0.881569         0.155335
 C        -0.741431         1.546469        -1.273194
 C        -1.958038         2.289296        -0.840389
 C        -2.919857         2.748208        -1.940338
 O        -3.338229         1.369640        -2.122179
 C        -2.925288         1.050616        -0.623223
 C        -2.075248         0.005473         0.000210
 C        -1.309609         2.428932         0.521782
 H         1.161740         0.819898         0.244613
 H         0.061657         2.177804        -1.605657
 H        -0.945394         0.941913        -2.155712
 H        -3.847453         3.234305        -1.637793
 H        -2.374945         3.089086        -2.784612
 H        -3.873467         1.316227         0.044361
 H        -2.543957        -0.330408         0.990797
 H        -1.776002        -0.914889        -0.548647
 H        -0.393075         3.035612         0.596964
 H        -2.053448         2.563867         1.346347
