19
Iteration:  4388charge 0 multiplicity 1
 O         0.187341         0.350122         0.770412
 C        -0.784215         1.033358         0.091484
 C        -0.568338         1.722227        -1.239519
 C        -1.909091         2.405359        -0.819037
 C        -3.050779         2.584571        -2.005831
 O        -3.313070         1.196481        -2.017451
 C        -2.899541         1.130967        -0.610225
 C        -1.944041         0.029758        -0.164725
 C        -1.364335         2.532077         0.604503
 H         1.004663         0.938712         0.866423
 H         0.157072         2.540458        -1.124962
 H        -0.515469         1.238155        -2.278202
 H        -3.865608         3.161695        -1.548607
 H        -2.722837         2.983722        -2.917364
 H        -3.835111         1.243842         0.057677
 H        -2.342274        -0.567372         0.652369
 H        -1.630191        -0.680850        -0.969308
 H        -0.538124         3.356788         0.701997
 H        -2.072865         2.365296         1.455135
