19
Iteration:  4131charge 0 multiplicity 1
 O         0.370386         0.458406         0.739244
 C        -0.813922         1.040486         0.143663
 C        -0.687994         1.683312        -1.306633
 C        -1.964235         2.338710        -0.902792
 C        -2.892720         2.617639        -2.040778
 O        -3.361846         1.252949        -1.974370
 C        -2.931158         1.128906        -0.556094
 C        -2.027581         0.044821        -0.114824
 C        -1.353799         2.385859         0.609091
 H         1.013739         1.177130         1.084767
 H         0.055471         2.512322        -1.438866
 H        -0.740846         1.073800        -2.207690
 H        -3.771696         3.176169        -1.776207
 H        -2.278034         2.866426        -2.953931
 H        -3.760167         1.314396         0.074459
 H        -2.455082        -0.476521         0.738020
 H        -1.815953        -0.664515        -0.837429
 H        -0.742288         3.261608         0.933422
 H        -2.197022         2.090782         1.387598
