19
Iteration:  3581
 O         0.206058         0.416669         0.971516
 C        -0.772624         1.044442         0.135903
 C        -0.585948         1.602161        -1.392947
 C        -1.891376         2.330466        -0.976878
 C        -3.000996         2.703597        -1.995524
 O        -3.498356         1.238848        -1.936559
 C        -2.890566         1.136578        -0.605094
 C        -1.930390         0.020750        -0.065178
 C        -1.248072         2.495038         0.395768
 H         0.978222         0.266317         0.469532
 H         0.069984         2.457856        -1.240677
 H        -0.506320         0.987946        -2.243705
 H        -3.857436         3.121739        -1.525454
 H        -2.825992         3.038975        -3.010125
 H        -3.646089         1.443276         0.267361
 H        -2.222001        -0.290402         1.065161
 H        -1.744427        -0.778312        -0.762369
 H        -0.423830         3.187194         0.425812
 H        -1.926405         2.671612         1.270337
