19
Iteration:   447charge 0 multiplicity 1
 O         0.425404         0.565027         0.834585
 C        -0.672421         0.993908         0.102643
 C        -0.700885         1.693839        -1.220045
 C        -2.107662         2.236150        -0.743241
 C        -2.922803         2.792426        -1.965286
 O        -3.450405         1.357945        -2.135586
 C        -2.937168         1.024468        -0.828607
 C        -1.887475        -0.020413        -0.143891
 C        -1.417550         2.355764         0.741416
 H         0.885584        -0.112709         0.384735
 H        -0.031868         2.487238        -1.399825
 H        -0.846046         1.058606        -2.073922
 H        -3.842680         3.418588        -1.711485
 H        -2.268495         3.037821        -2.705952
 H        -3.808739         1.132193        -0.131622
 H        -2.184369        -0.502628         0.769939
 H        -1.645221        -0.873939        -0.809523
 H        -0.717092         3.151087         0.716616
 H        -2.003738         2.125653         1.683928
