19
Iteration:  1883charge 0 multiplicity 1
 O         0.262118         0.421330         0.895049
 C        -0.762965         1.007940         0.129986
 C        -0.686542         1.514543        -1.382873
 C        -1.885229         2.329971        -0.911048
 C        -3.052887         2.736403        -1.921554
 O        -3.435782         1.287626        -1.951237
 C        -2.862421         1.106665        -0.681889
 C        -2.001977         0.007952        -0.051261
 C        -1.214565         2.508380         0.378861
 H         0.921719         1.174547         1.068459
 H         0.157781         2.121223        -1.608507
 H        -0.793203         0.698336        -2.070419
 H        -3.887413         3.227119        -1.343948
 H        -2.836620         3.300676        -2.874465
 H        -3.652527         1.463787         0.126919
 H        -2.269850        -0.466627         0.898778
 H        -1.629437        -0.809595        -0.643978
 H        -0.358037         3.230036         0.513994
 H        -1.892761         2.762400         1.331136
