19
Iteration:  3427
 O         0.362726         0.496088         0.889778
 C        -0.743151         1.014382         0.119791
 C        -0.715629         1.542583        -1.332883
 C        -1.978339         2.228143        -0.880859
 C        -2.938907         2.753552        -1.959845
 O        -3.513788         1.359470        -2.051987
 C        -2.924398         1.072591        -0.726488
 C        -1.841205         0.014314        -0.088781
 C        -1.326203         2.440483         0.563563
 H         0.593157         1.095605         1.669945
 H         0.190849         2.119828        -1.658394
 H        -0.917798         0.716253        -1.997407
 H        -3.729774         3.594203        -1.639249
 H        -2.557491         3.239772        -2.875111
 H        -3.792102         1.024033        -0.136182
 H        -2.345486        -0.425697         0.845719
 H        -1.449569        -0.829046        -0.644724
 H        -0.483306         3.115706         0.523147
 H        -2.092783         2.461632         1.393091
