19
Iteration:  2973charge 0 multiplicity 1
 O         0.370662         0.291886         0.748917
 C        -0.729135         1.014293         0.144511
 C        -0.690272         1.735921        -1.328645
 C        -2.028402         2.394004        -0.826814
 C        -2.970365         2.674771        -2.068479
 O        -3.356096         1.188160        -1.994431
 C        -2.919031         1.167801        -0.561287
 C        -1.968666         0.120386        -0.043177
 C        -1.311899         2.521296         0.548186
 H         0.104474        -0.496811         1.162071
 H         0.194236         2.424993        -1.461207
 H        -0.589975         1.066374        -2.243122
 H        -3.890060         3.160924        -1.784759
 H        -2.582806         3.041015        -3.011744
 H        -3.777283         1.310545         0.006260
 H        -2.327589        -0.409651         0.883067
 H        -1.869933        -0.662901        -0.731763
 H        -0.624912         3.330784         0.470789
 H        -2.062814         2.605772         1.490261
