19
Iteration:   352charge 0 multiplicity 1
 O         0.427929         0.519274         0.756767
 C        -0.779582         0.985814         0.137519
 C        -0.662148         1.779341        -1.210156
 C        -2.067868         2.302532        -0.742554
 C        -2.938611         2.745120        -1.854532
 O        -3.404235         1.340676        -2.081251
 C        -2.933531         0.982065        -0.801075
 C        -1.896273        -0.039423        -0.242530
 C        -1.432403         2.383711         0.598127
 H         0.168835         0.268794         1.689083
 H         0.211721         2.436651        -1.385195
 H        -0.663613         0.969965        -1.961538
 H        -3.772804         3.357589        -1.569822
 H        -2.394967         3.070958        -2.829875
 H        -3.721664         0.996647        -0.027041
 H        -2.230442        -0.716992         0.602289
 H        -1.339176        -0.720304        -0.931856
 H        -0.644054         3.207661         0.744768
 H        -2.081434         2.300386         1.458230
