19
Iteration:   870charge 0 multiplicity 1
 O         0.290462         0.450461         0.851743
 C        -0.733123         1.068357         0.131603
 C        -0.610899         1.583971        -1.356742
 C        -1.959783         2.254543        -0.820803
 C        -2.980967         2.761047        -1.931367
 O        -3.483279         1.315127        -2.029027
 C        -2.900485         1.050638        -0.707102
 C        -1.917195        -0.014172        -0.070051
 C        -1.385054         2.509799         0.525672
 H         1.087906         0.356484         0.357353
 H         0.315374         2.188124        -1.527437
 H        -0.492921         0.858694        -2.145985
 H        -3.722658         3.305714        -1.443422
 H        -2.789385         3.237675        -2.910279
 H        -3.588076         1.275896         0.254096
 H        -2.218628        -0.479041         0.905699
 H        -1.498158        -0.850257        -0.724537
 H        -0.722942         3.344766         0.641085
 H        -2.057579         2.537164         1.399460
