19
Iteration:  4873
 O         0.247319         0.382866         0.818919
 C        -0.797218         1.006476         0.158091
 C        -0.655207         1.696209        -1.271303
 C        -1.932620         2.382841        -0.897729
 C        -3.100448         2.641835        -1.904635
 O        -3.259796         1.225308        -2.057166
 C        -2.870766         1.162120        -0.693280
 C        -1.903514         0.047075        -0.153823
 C        -1.390088         2.498573         0.601966
 H         1.178965         0.759420         0.985798
 H         0.122355         2.506669        -1.446683
 H        -0.491155         0.815601        -1.953915
 H        -4.164020         2.999689        -1.564357
 H        -2.852956         3.040071        -2.888448
 H        -3.782100         1.082603        -0.020040
 H        -2.312469        -0.537681         0.616296
 H        -1.670266        -0.615162        -0.939019
 H        -0.475895         3.053278         0.760667
 H        -2.167504         2.536594         1.412192
