19
Iteration:  1877
 O         0.317385         0.435892         0.911474
 C        -0.736639         0.973342         0.158936
 C        -0.679693         1.504035        -1.369497
 C        -1.896884         2.311545        -0.983035
 C        -3.003708         2.751224        -1.879339
 O        -3.459648         1.305970        -1.972572
 C        -2.891718         1.123755        -0.632277
 C        -2.017853        -0.019606        -0.072255
 C        -1.282198         2.552211         0.414846
 H         0.898628         1.218557         0.821210
 H         0.270264         2.094944        -1.596492
 H        -0.792371         0.777491        -2.236001
 H        -3.883123         3.277697        -1.501293
 H        -2.831734         3.162604        -2.862647
 H        -3.608341         1.438510         0.111674
 H        -2.346043        -0.566078         0.898875
 H        -1.661040        -0.900235        -0.686644
 H        -0.356448         3.125579         0.392611
 H        -1.926829         2.733407         1.215212
