19
Iteration:  1715charge 0 multiplicity 1
 O         0.434358         0.550675         0.819382
 C        -0.814004         0.986721         0.166099
 C        -0.669954         1.568355        -1.280815
 C        -1.954881         2.322265        -0.907564
 C        -2.892870         2.711301        -2.029362
 O        -3.539525         1.336330        -1.935747
 C        -2.868918         1.185759        -0.599948
 C        -1.973174        -0.078563        -0.126435
 C        -1.374613         2.446299         0.478227
 H         0.506606        -0.427012         1.056820
 H         0.268527         2.146676        -1.279636
 H        -0.790463         0.806342        -2.064113
 H        -3.607597         3.554659        -1.921182
 H        -2.542384         2.699579        -3.055841
 H        -3.561384         1.517316         0.295269
 H        -2.315072        -0.589253         0.679954
 H        -1.703884        -0.828970        -0.870071
 H        -0.397543         3.150527         0.681772
 H        -2.209361         2.676549         1.162191
