19
Iteration:  4422charge 0 multiplicity 1
 O         0.286127         0.411810         0.909340
 C        -0.716622         1.077265         0.164077
 C        -0.701579         1.586610        -1.315195
 C        -2.014887         2.303251        -0.819238
 C        -3.001179         2.751855        -1.883677
 O        -3.407906         1.322787        -2.144319
 C        -2.850973         1.056133        -0.769671
 C        -1.870061        -0.017121        -0.108615
 C        -1.361773         2.446123         0.555669
 H         1.130993         0.976395         0.955696
 H         0.020145         2.422244        -1.516592
 H        -0.855744         0.957510        -2.246665
 H        -3.929270         3.292765        -1.639019
 H        -2.650545         3.160373        -2.817618
 H        -3.632686         1.026295         0.050285
 H        -2.457406        -0.388441         0.805932
 H        -1.429743        -0.874739        -0.659090
 H        -0.723741         3.430106         0.667882
 H        -1.934348         2.384601         1.499739
