19
Iteration:  4810
 O         0.435572         0.535679         0.804033
 C        -0.723527         1.009062         0.176686
 C        -0.674237         1.586280        -1.239940
 C        -1.984502         2.252329        -0.853175
 C        -2.929547         2.804595        -2.009727
 O        -3.444358         1.313765        -2.090533
 C        -2.901177         1.087327        -0.717679
 C        -1.939343        -0.072399        -0.094053
 C        -1.519986         2.378860         0.641824
 H         1.038132         1.351990         0.812339
 H         0.127346         2.269327        -1.455262
 H        -0.551758         0.794169        -2.002421
 H        -3.741658         3.466513        -1.737399
 H        -2.323247         3.164450        -2.818521
 H        -3.771895         1.273831        -0.212605
 H        -2.341508        -0.361916         0.828430
 H        -1.709789        -0.973817        -0.749770
 H        -0.745684         3.072198         0.884460
 H        -2.385941         2.390836         1.408814
