19
Iteration:   340
 O         0.407745         0.599403         0.701768
 C        -0.755600         1.008163         0.165433
 C        -0.758796         1.633506        -1.229691
 C        -1.995318         2.258273        -0.761420
 C        -2.929135         2.745618        -1.962110
 O        -3.356117         1.347478        -2.085785
 C        -2.870102         1.058904        -0.691131
 C        -1.888509        -0.061962        -0.287200
 C        -1.463737         2.311898         0.767508
 H         0.369034         0.501744         1.624350
 H        -0.051202         2.440823        -1.243094
 H        -0.878987         1.174627        -2.201939
 H        -3.728707         3.388504        -1.620295
 H        -2.565591         3.194268        -2.937991
 H        -3.775764         1.130901        -0.084770
 H        -2.448142        -0.635693         0.497046
 H        -1.539484        -0.747868        -1.114292
 H        -0.686491         3.144086         0.824247
 H        -2.192153         2.401697         1.601475
