19
Iteration:  4392
 O         0.190539         0.333651         0.798117
 C        -0.773721         1.045978         0.082999
 C        -0.577048         1.713035        -1.270829
 C        -1.905158         2.365021        -0.820455
 C        -3.042545         2.594578        -1.965415
 O        -3.295229         1.219782        -2.041853
 C        -2.963177         1.115736        -0.617953
 C        -1.908631         0.057863        -0.165788
 C        -1.355985         2.550684         0.597670
 H         0.952426         0.870958         0.872164
 H         0.080308         2.542684        -0.989013
 H        -0.614464         1.276661        -2.230895
 H        -3.976475         3.125380        -1.555070
 H        -2.763351         2.903170        -3.056172
 H        -3.737723         1.191977         0.180118
 H        -2.258891        -0.652433         0.723369
 H        -1.666366        -0.638521        -0.990963
 H        -0.629245         3.312782         0.662772
 H        -2.010294         2.484820         1.422110
