19
Iteration:  2056charge 0 multiplicity 1
 O         0.363093         0.429348         0.715413
 C        -0.788177         1.031761         0.118920
 C        -0.564759         1.582312        -1.241659
 C        -1.939874         2.264327        -0.938127
 C        -2.944825         2.629089        -2.013938
 O        -3.570397         1.289629        -1.943677
 C        -2.900918         1.149633        -0.587475
 C        -2.007857         0.093557        -0.081380
 C        -1.259641         2.475399         0.539625
 H         0.314239         0.568833         1.637503
 H         0.307024         2.315326        -1.368785
 H        -0.711957         0.884899        -2.106184
 H        -3.716115         3.379136        -1.852725
 H        -2.531813         2.851929        -3.044273
 H        -3.734466         1.369062         0.225249
 H        -2.338370        -0.243098         0.914102
 H        -1.716090        -0.687356        -0.810078
 H        -0.424078         3.154698         0.393007
 H        -1.876098         2.779908         1.332421
