19
Iteration:  3909
 O         0.380798         0.525311         0.793458
 C        -0.755050         1.033141         0.216615
 C        -0.536170         1.474156        -1.285709
 C        -1.944591         2.258945        -0.967731
 C        -3.020980         2.723862        -1.911952
 O        -3.485108         1.239014        -1.995309
 C        -2.889882         1.141579        -0.686930
 C        -2.028003         0.071730        -0.067594
 C        -1.313296         2.515422         0.434739
 H         0.108171         0.126046         1.651575
 H         0.295194         2.130622        -1.269489
 H        -0.509478         0.744332        -2.120338
 H        -4.029627         3.293584        -1.627001
 H        -2.862534         3.112484        -2.921032
 H        -3.678522         1.442681         0.187390
 H        -2.360292        -0.426212         0.804663
 H        -1.574140        -0.634812        -0.681386
 H        -0.478742         3.272953         0.364301
 H        -1.996435         2.678140         1.281238
