19
Iteration:  1463charge 0 multiplicity 1
 O         0.395424         0.554266         0.716293
 C        -0.761552         1.015249         0.147884
 C        -0.708673         1.638616        -1.273149
 C        -2.014238         2.285523        -0.794618
 C        -2.932659         2.675206        -1.981449
 O        -3.332823         1.265138        -2.084384
 C        -2.936252         1.127589        -0.659729
 C        -1.941681         0.132348        -0.105373
 C        -1.396921         2.331856         0.635308
 H         0.233093        -0.302710         1.057875
 H         0.237860         2.104028        -1.348207
 H        -0.857917         0.906620        -2.049421
 H        -3.714656         3.392490        -1.639252
 H        -2.615427         3.018438        -2.968548
 H        -3.838040         1.359697         0.096335
 H        -2.344054        -0.359945         0.858491
 H        -1.821937        -0.690446        -0.914091
 H        -0.617627         3.114678         0.884478
 H        -1.966190         2.471003         1.501742
