19
Iteration:  4354
 O         0.406561         0.445326         0.786143
 C        -0.692420         1.002414         0.147233
 C        -0.620746         1.629625        -1.255269
 C        -2.025543         2.288880        -0.832653
 C        -2.923082         2.663525        -2.041872
 O        -3.448131         1.334030        -2.091759
 C        -2.957765         1.107421        -0.660019
 C        -1.959030         0.049757        -0.045738
 C        -1.461440         2.384019         0.602238
 H         1.104179         1.135518         0.762483
 H         0.150941         2.415021        -1.256854
 H        -0.528102         1.031871        -2.255831
 H        -3.614365         3.419430        -1.689319
 H        -2.505876         3.053537        -2.932754
 H        -3.919948         1.231929        -0.107220
 H        -2.287713        -0.340922         0.861496
 H        -1.584855        -0.764251        -0.690982
 H        -0.853244         3.289772         1.013446
 H        -2.231434         2.139834         1.438071
