19
Iteration:  3144charge 0 multiplicity 1
 O         0.391285         0.621096         0.793486
 C        -0.778113         0.888246         0.150299
 C        -0.776955         1.539835        -1.291884
 C        -1.959811         2.244798        -0.829200
 C        -2.840797         2.727028        -1.883232
 O        -3.322117         1.366317        -2.087819
 C        -2.975508         1.071810        -0.669832
 C        -2.076394         0.014503         0.011648
 C        -1.356517         2.389666         0.503262
 H         1.055700         0.992683         0.129690
 H         0.097549         2.211904        -1.527371
 H        -1.016551         0.868766        -2.146087
 H        -3.638376         3.501595        -1.612834
 H        -2.422362         3.131401        -2.891559
 H        -3.885601         1.286899        -0.153664
 H        -2.439359        -0.339628         0.996234
 H        -1.896463        -0.867533        -0.590915
 H        -0.438033         2.983716         0.436117
 H        -1.966276         2.515473         1.404610
