19
Iteration:  1483
 O         0.523281         0.672978         0.823579
 C        -0.769065         0.941529         0.103834
 C        -0.666230         1.542380        -1.327481
 C        -1.990875         2.226806        -0.835686
 C        -2.911823         2.781450        -1.897065
 O        -3.360767         1.337905        -2.076413
 C        -2.965266         1.126009        -0.696173
 C        -2.109764        -0.072160        -0.072096
 C        -1.398634         2.409792         0.560666
 H         0.578047        -0.274757         0.845566
 H         0.020562         2.365381        -1.346570
 H        -0.711911         0.858731        -2.185323
 H        -3.864212         3.315310        -1.713336
 H        -2.456538         3.123580        -2.822727
 H        -3.923196         1.401308        -0.063384
 H        -2.524572        -0.458022         0.764819
 H        -1.742340        -0.845004        -0.665585
 H        -0.762455         3.244493         0.961526
 H        -2.078132         2.229381         1.458221
