19
Iteration:  2746charge 0 multiplicity 1
 O         0.369126         0.344275         0.818562
 C        -0.757853         0.982319         0.102715
 C        -0.613406         1.532926        -1.409732
 C        -1.945978         2.272833        -0.938350
 C        -3.053598         2.784220        -1.915263
 O        -3.385219         1.271936        -1.993339
 C        -2.876075         1.118745        -0.590083
 C        -2.009947         0.078545        -0.040901
 C        -1.323203         2.616529         0.492457
 H         0.279623         0.665212         1.746638
 H         0.253530         2.212124        -1.590372
 H        -0.635034         0.814538        -2.255821
 H        -3.882489         3.247464        -1.341168
 H        -3.074805         3.051858        -2.928493
 H        -3.639745         1.487698         0.069163
 H        -2.443377        -0.576943         0.858319
 H        -1.716712        -0.715827        -0.784032
 H        -0.496002         3.303530         0.491720
 H        -2.034373         2.607897         1.338780
