19
Iteration:  1495
 O         0.442375         0.698849         0.842911
 C        -0.741684         0.956419         0.174594
 C        -0.689561         1.561602        -1.315657
 C        -1.974494         2.226540        -0.842994
 C        -2.956954         2.792432        -1.931519
 O        -3.409346         1.411133        -2.105770
 C        -2.935703         1.008570        -0.731230
 C        -2.049149        -0.092613        -0.031765
 C        -1.366822         2.366315         0.549316
 H         0.845247        -0.245380         0.669179
 H         0.248634         2.040951        -1.246708
 H        -0.679916         1.032291        -2.263158
 H        -3.614294         3.535767        -1.425296
 H        -2.543763         3.181371        -2.859200
 H        -3.739166         1.275483         0.100475
 H        -2.551964        -0.412831         0.843306
 H        -1.855034        -0.946627        -0.673417
 H        -0.541229         3.175857         0.502677
 H        -2.137204         2.377522         1.330476
