19
Iteration:  1391
 O         0.421568         0.630129         0.768087
 C        -0.800865         0.968397         0.163539
 C        -0.630942         1.586993        -1.269303
 C        -1.921220         2.283844        -0.868897
 C        -3.020306         2.728616        -1.954383
 O        -3.420011         1.352853        -2.032503
 C        -2.896042         1.085907        -0.771529
 C        -1.967395        -0.015013        -0.136267
 C        -1.427197         2.313613         0.618292
 H         0.229825         0.181200         1.616876
 H         0.312822         2.198336        -1.508235
 H        -0.941976         0.884925        -2.083313
 H        -3.779611         3.449094        -1.610959
 H        -2.493056         3.109257        -2.857162
 H        -3.605538         1.318825         0.100595
 H        -2.356002        -0.358541         0.767979
 H        -1.560054        -0.839035        -0.678151
 H        -0.554673         3.005263         0.703020
 H        -1.921427         2.495067         1.616385
