19
Iteration:  2394charge 0 multiplicity 1
 O         0.279913         0.403977         0.755576
 C        -0.716416         1.076935         0.087680
 C        -0.592439         1.555299        -1.356141
 C        -1.931612         2.322285        -0.934609
 C        -3.057636         2.640424        -1.897534
 O        -3.480510         1.242273        -1.957412
 C        -2.869845         1.163520        -0.659918
 C        -1.987956         0.165828         0.001868
 C        -1.191509         2.422211         0.464448
 H        -0.196107         0.340965         1.612159
 H         0.241127         2.154106        -1.551221
 H        -0.683209         0.838338        -2.135324
 H        -3.844611         3.355747        -1.321632
 H        -2.683707         3.085659        -2.797833
 H        -3.731543         1.551290        -0.060853
 H        -2.476526        -0.238908         0.949413
 H        -1.592068        -0.689271        -0.509117
 H        -0.393660         3.247017         0.413095
 H        -1.872609         2.447823         1.376555
