19
Iteration:  2777charge 0 multiplicity 1
 O         0.388713         0.519157         0.707512
 C        -0.789186         1.032817         0.149102
 C        -0.667720         1.501736        -1.355117
 C        -1.974064         2.232345        -0.833497
 C        -2.964455         2.762356        -1.923117
 O        -3.406684         1.277247        -2.068641
 C        -2.919207         1.102181        -0.664375
 C        -2.032790         0.090859         0.011870
 C        -1.252063         2.456045         0.521518
 H         0.123137         0.157524         1.567551
 H         0.198048         2.214553        -1.330772
 H        -0.807692         0.658858        -2.105827
 H        -3.860544         3.337718        -1.470781
 H        -2.810874         3.082828        -2.948042
 H        -3.661597         1.452025         0.029446
 H        -2.524498        -0.216083         0.954543
 H        -1.691486        -0.703215        -0.609375
 H        -0.471923         3.137417         0.449694
 H        -1.620662         2.591586         1.577093
