19
Iteration:  1558charge 0 multiplicity 1
 O         0.194504         0.351115         0.806671
 C        -0.770583         1.007402         0.107299
 C        -0.594443         1.661080        -1.267222
 C        -1.906923         2.350423        -0.907953
 C        -3.001084         2.668322        -1.982048
 O        -3.446744         1.192351        -1.951878
 C        -2.874556         1.161296        -0.639981
 C        -1.959012         0.049162        -0.142888
 C        -1.291423         2.501156         0.583383
 H         1.022140         0.972070         0.775799
 H         0.281607         2.360779        -1.089528
 H        -0.470216         1.167032        -2.288886
 H        -3.876159         3.302953        -1.810004
 H        -2.624808         2.962456        -2.963416
 H        -3.669790         1.427377        -0.038278
 H        -2.297721        -0.486606         0.684340
 H        -1.676994        -0.611344        -0.913267
 H        -0.587700         3.265171         0.667819
 H        -1.910441         2.740747         1.517979
