19
Iteration:  4543charge 0 multiplicity 1
 O         0.330340         0.469913         0.788868
 C        -0.789117         1.041735         0.257616
 C        -0.588081         1.618318        -1.319923
 C        -1.947785         2.317467        -0.808079
 C        -3.095570         2.724887        -1.971864
 O        -3.299336         1.286350        -2.067965
 C        -2.894297         1.076715        -0.744803
 C        -1.981308        -0.001336        -0.127875
 C        -1.426603         2.394673         0.574724
 H         1.056152         1.091286         0.809238
 H         0.260551         2.409491        -1.365671
 H        -0.366799         0.900980        -2.124998
 H        -3.888727         3.257331        -1.462723
 H        -2.912156         3.213673        -2.915744
 H        -3.749190         1.250611        -0.027871
 H        -2.507342        -0.394030         0.809738
 H        -1.619863        -0.802666        -0.728977
 H        -0.585748         3.168976         0.929785
 H        -2.123387         2.324770         1.443749
