19
Iteration:  2008
 O         0.270596         0.530535         0.833983
 C        -0.724796         1.075424         0.097391
 C        -0.625394         1.507223        -1.393047
 C        -1.976049         2.233320        -0.935707
 C        -3.010649         2.683622        -1.874188
 O        -3.465214         1.292559        -2.000525
 C        -2.891186         1.141831        -0.674980
 C        -1.963081         0.096801         0.018529
 C        -1.186809         2.440518         0.454920
 H         0.028894        -0.418410         1.113758
 H         0.241017         2.175402        -1.563184
 H        -0.730324         0.679049        -2.094300
 H        -3.827206         3.194475        -1.267567
 H        -2.855057         3.106046        -2.836520
 H        -3.716003         1.536823         0.064778
 H        -2.340397        -0.120509         0.994673
 H        -1.637700        -0.656682        -0.747521
 H        -0.299303         3.153179         0.533091
 H        -1.827699         2.635386         1.371226
