19
Iteration:   517
 O         0.297378         0.359286         0.837481
 C        -0.747025         1.060443         0.137711
 C        -0.690859         1.716630        -1.296039
 C        -2.051277         2.289110        -0.737892
 C        -3.080831         2.821788        -1.947305
 O        -3.392875         1.272033        -2.127595
 C        -2.827028         1.076141        -0.692884
 C        -1.814423        -0.004093        -0.158969
 C        -1.390884         2.396316         0.639632
 H         1.091319         0.833292         0.871451
 H         0.046159         2.547006        -1.296925
 H        -0.781049         1.078934        -2.190202
 H        -3.982283         3.261710        -1.669213
 H        -2.607949         3.200123        -2.919545
 H        -3.716183         1.305581        -0.075484
 H        -2.149987        -0.741404         0.672068
 H        -1.393053        -0.688493        -0.936293
 H        -0.480694         3.180165         0.483685
 H        -1.889911         2.235706         1.595471
