19
Iteration:  1733charge 0 multiplicity 1
 O         0.379653         0.652876         0.799369
 C        -0.754512         1.004804         0.120482
 C        -0.640743         1.446461        -1.327105
 C        -1.913342         2.228204        -0.880637
 C        -2.901626         2.720176        -1.959994
 O        -3.522980         1.393614        -1.991234
 C        -2.941490         1.053090        -0.682602
 C        -1.976918         0.054960        -0.064807
 C        -1.313107         2.429755         0.571416
 H         0.225178        -0.318861         1.054194
 H         0.191611         2.196969        -1.489721
 H        -0.747898         0.698153        -2.196587
 H        -3.685407         3.416825        -1.602116
 H        -2.462726         3.076166        -2.926692
 H        -3.781980         1.279783         0.015605
 H        -2.469794        -0.340530         0.994234
 H        -1.708596        -0.798202        -0.734321
 H        -0.506326         3.058642         0.446794
 H        -2.072057         2.344982         1.410022
