19
Iteration:  1949charge 0 multiplicity 1
 O         0.347662         0.468384         0.635763
 C        -0.800789         1.046697         0.125744
 C        -0.629785         1.469666        -1.238726
 C        -1.973731         2.286376        -0.857409
 C        -2.834969         2.643237        -2.041021
 O        -3.483052         1.280315        -1.973706
 C        -2.972568         1.227126        -0.593740
 C        -2.006585         0.047102         0.060578
 C        -1.294436         2.506938         0.569616
 H         1.031711         1.001379         0.268029
 H         0.252377         1.999243        -1.481030
 H        -0.776777         0.676394        -1.950932
 H        -3.615800         3.422167        -1.864067
 H        -2.451741         2.780844        -3.105365
 H        -3.828054         1.470736         0.009817
 H        -2.403933        -0.523808         0.917991
 H        -1.833489        -0.780041        -0.569499
 H        -0.451680         3.199120         0.732409
 H        -2.219067         2.642828         1.374168
