19
Iteration:  2503
 O         0.208180         0.446445         0.708493
 C        -0.805012         1.008693         0.122886
 C        -0.550542         1.481336        -1.358168
 C        -1.876509         2.286080        -0.934163
 C        -3.077283         2.634402        -1.828099
 O        -3.412013         1.257252        -1.999003
 C        -2.922643         1.194077        -0.597811
 C        -1.961769         0.100496        -0.031250
 C        -1.205098         2.512784         0.442411
 H         0.265183         0.854480         1.633451
 H         0.183899         2.254168        -1.423521
 H        -0.573041         0.821018        -2.210205
 H        -3.826856         3.293843        -1.411146
 H        -2.782951         3.164980        -2.663723
 H        -3.673965         1.484917         0.147274
 H        -2.377466        -0.421162         0.947337
 H        -1.730552        -0.592607        -0.830224
 H        -0.313666         3.201983         0.441960
 H        -1.739127         2.652102         1.440688
