19
Iteration:  3321charge 0 multiplicity 1
 O         0.265699         0.412828         0.710023
 C        -0.828803         1.045458         0.123997
 C        -0.652681         1.653575        -1.288582
 C        -2.028447         2.336934        -0.812512
 C        -3.012954         2.711292        -1.960782
 O        -3.264958         1.222600        -2.068075
 C        -2.896368         1.152538        -0.647649
 C        -1.974802         0.025958        -0.006623
 C        -1.317188         2.394920         0.574747
 H         1.016465         1.063481         0.892424
 H         0.184030         2.401620        -1.436188
 H        -0.775048         1.032958        -2.181413
 H        -3.910468         3.107559        -1.699120
 H        -2.470080         3.137891        -2.842314
 H        -3.833727         1.318090        -0.071295
 H        -2.308231        -0.402947         0.987151
 H        -1.659815        -0.758120        -0.676671
 H        -0.552479         3.154879         0.564464
 H        -1.784061         2.516904         1.619462
