19
Iteration:  2265charge 0 multiplicity 1
 O         0.370655         0.360111         0.748690
 C        -0.760969         0.987654         0.152805
 C        -0.714047         1.570030        -1.365855
 C        -1.961107         2.406714        -0.829591
 C        -3.105380         2.718328        -1.922198
 O        -3.316782         1.178669        -1.997841
 C        -2.844050         1.185661        -0.657205
 C        -2.033505         0.057580        -0.021107
 C        -1.265456         2.565379         0.450469
 H         0.184568         0.072444         1.698418
 H         0.175986         2.276025        -1.417300
 H        -0.861162         0.852110        -2.281069
 H        -4.020060         3.244295        -1.516086
 H        -2.920593         3.102886        -3.041285
 H        -3.605808         1.513270         0.022986
 H        -2.498500        -0.226308         0.981097
 H        -1.802736        -0.776011        -0.612705
 H        -0.239525         2.963236         0.343566
 H        -1.667485         3.050771         1.338917
