19
Iteration:  1407charge 0 multiplicity 1
 O         0.383741         0.441993         0.698048
 C        -0.748401         1.047742         0.175466
 C        -0.582929         1.614542        -1.266930
 C        -1.963264         2.322700        -0.886468
 C        -2.992068         2.722800        -1.931148
 O        -3.406595         1.265687        -2.051178
 C        -2.859785         1.112561        -0.640278
 C        -1.960086         0.033587        -0.128373
 C        -1.450997         2.458838         0.590008
 H         0.208041         0.326255         1.705631
 H         0.212748         2.338672        -1.288401
 H        -0.449621         0.851994        -2.021655
 H        -3.845326         3.242296        -1.454001
 H        -2.735834         3.082472        -2.917950
 H        -3.771808         1.372102        -0.024093
 H        -2.369227        -0.581290         0.746565
 H        -1.702753        -0.692592        -0.949083
 H        -0.747717         3.224620         0.927397
 H        -2.349027         2.355101         1.191887
