19
Iteration:  4919charge 0 multiplicity 1
 O         0.405158         0.448092         0.859122
 C        -0.770890         1.056231         0.132917
 C        -0.612554         1.690532        -1.249215
 C        -2.032265         2.200335        -0.814980
 C        -2.941594         2.722395        -2.081106
 O        -3.494265         1.350822        -2.104310
 C        -2.898899         1.050822        -0.644606
 C        -1.913775        -0.033380        -0.121513
 C        -1.422917         2.395490         0.642128
 H         1.119871         1.132285         0.835034
 H         0.181192         2.483303        -1.308693
 H        -0.712193         1.041634        -2.165020
 H        -3.669981         3.565251        -1.715043
 H        -2.357692         3.133882        -2.921514
 H        -3.859843         1.171679        -0.123171
 H        -2.188498        -0.367547         0.765380
 H        -1.616899        -0.910458        -0.714318
 H        -0.707196         3.203991         0.730827
 H        -2.266250         2.362213         1.399163
