19
Iteration:  3833charge 0 multiplicity 1
 O         0.414600         0.473912         0.795602
 C        -0.743876         0.994596         0.157116
 C        -0.635937         1.609135        -1.301381
 C        -1.984345         2.288362        -0.889076
 C        -2.965826         2.700537        -1.944478
 O        -3.370442         1.185584        -2.051195
 C        -2.945839         1.149444        -0.602005
 C        -2.034386         0.127651         0.033863
 C        -1.348851         2.523672         0.399176
 H         0.101494        -0.475158         0.798375
 H         0.159317         2.268555        -1.290263
 H        -0.488553         0.832302        -2.045629
 H        -3.888542         3.134689        -1.492871
 H        -2.705387         3.063087        -2.947104
 H        -3.760501         1.406438         0.067482
 H        -2.505924        -0.269508         0.908267
 H        -1.834285        -0.597855        -0.685895
 H        -0.535508         3.281860         0.444188
 H        -1.946511         2.679297         1.315313
