19
Iteration:   471
 O         0.383864         0.527009         0.772170
 C        -0.782864         0.953638         0.150840
 C        -0.625275         1.720411        -1.294925
 C        -2.003143         2.268097        -0.859387
 C        -3.037392         2.780134        -1.877377
 O        -3.323987         1.321898        -2.117750
 C        -2.863559         1.071571        -0.707501
 C        -1.939536         0.028767        -0.081866
 C        -1.492698         2.303162         0.678603
 H         1.068604         0.310467         0.110134
 H         0.139429         2.497602        -1.207211
 H        -0.582679         1.064362        -2.138928
 H        -3.881464         3.278506        -1.386927
 H        -2.458722         3.150770        -2.706045
 H        -3.814716         1.194469        -0.103171
 H        -2.371107        -0.578776         0.778142
 H        -1.629952        -0.800941        -0.807590
 H        -0.659512         3.141045         0.895593
 H        -2.446085         2.248582         1.217229
