19
Iteration:  3701charge 0 multiplicity 1
 O         0.214542         0.350783         0.829014
 C        -0.801360         1.032979         0.131060
 C        -0.673215         1.583865        -1.365198
 C        -1.903564         2.297855        -0.924530
 C        -2.951332         2.700360        -1.987178
 O        -3.396730         1.196205        -1.974776
 C        -2.890564         1.079029        -0.656215
 C        -2.018256         0.129301         0.009255
 C        -1.249700         2.625871         0.497569
 H         1.089978         0.849537         0.918596
 H         0.020924         2.427190        -1.498338
 H        -0.570970         0.812851        -2.145180
 H        -3.779911         3.220520        -1.471962
 H        -2.704121         3.091346        -2.943004
 H        -3.809985         1.124900        -0.028752
 H        -2.203482        -0.403284         1.097331
 H        -1.653135        -0.694087        -0.607621
 H        -0.362715         3.225727         0.310366
 H        -1.876564         2.789238         1.466006
