19
Iteration:  1427
 O         0.385397         0.292356         0.726794
 C        -0.725888         0.979088         0.079810
 C        -0.578221         1.811203        -1.199361
 C        -2.004719         2.260195        -0.839696
 C        -2.988394         2.649491        -1.921370
 O        -3.366320         1.225653        -2.048165
 C        -2.936734         1.108369        -0.646078
 C        -1.945202         0.100289        -0.130544
 C        -1.445653         2.590598         0.558589
 H         0.142456         0.112073         1.633569
 H         0.239268         2.537930        -1.181914
 H        -0.528375         1.280721        -2.187420
 H        -3.887766         3.211174        -1.611384
 H        -2.648964         2.951320        -2.922772
 H        -3.914589         1.374740         0.003300
 H        -2.280427        -0.326805         0.732308
 H        -1.709866        -0.667659        -0.781523
 H        -0.663778         3.265823         0.399857
 H        -2.162339         2.569139         1.458392
