19
Iteration:   234
 O         0.322641         0.643402         0.866344
 C        -0.765277         0.936996         0.009413
 C        -0.638844         1.786190        -1.244377
 C        -1.973308         2.277888        -0.818415
 C        -3.025315         2.730115        -1.897284
 O        -3.385240         1.319040        -2.008120
 C        -2.854106         1.067484        -0.713589
 C        -1.899355        -0.025550        -0.292854
 C        -1.447317         2.242218         0.630854
 H         0.318954        -0.251606         1.100582
 H         0.201839         2.596826        -1.143327
 H        -0.178070         1.341024        -2.222172
 H        -3.873837         3.280005        -1.458207
 H        -2.723478         3.191147        -2.929649
 H        -3.612506         1.201721         0.109392
 H        -2.318775        -0.520006         0.598932
 H        -1.605748        -0.785081        -0.994236
 H        -0.574975         2.975429         0.781076
 H        -2.005001         1.990423         1.561369
