19
Iteration:  4211charge 0 multiplicity 1
 O         0.363604         0.621495         0.856748
 C        -0.795911         0.968872         0.074452
 C        -0.626735         1.556125        -1.292947
 C        -1.969618         2.278701        -0.863554
 C        -2.959311         2.705694        -1.948663
 O        -3.390680         1.347480        -2.004265
 C        -2.947351         1.103830        -0.739107
 C        -2.019643        -0.052350        -0.089664
 C        -1.348943         2.346314         0.591731
 H         1.286103         0.944159         0.585585
 H         0.111564         2.336636        -1.287554
 H        -0.741001         0.875267        -2.145452
 H        -3.728486         3.537095        -1.853722
 H        -2.552298         2.986809        -2.920109
 H        -3.690309         1.259922         0.036786
 H        -2.403099        -0.434373         0.841059
 H        -1.731051        -0.852751        -0.784607
 H        -0.634375         3.162665         0.869836
 H        -2.090001         2.389573         1.455975
