19
Iteration:  3857charge 0 multiplicity 1
 O         0.426375         0.582311         0.751718
 C        -0.721514         1.053900         0.160635
 C        -0.708581         1.537043        -1.254849
 C        -2.006112         2.282637        -0.850963
 C        -2.832066         2.717687        -2.114117
 O        -3.538645         1.289744        -2.013608
 C        -2.959632         1.102174        -0.650656
 C        -1.953156         0.000962         0.002799
 C        -1.330129         2.489831         0.591092
 H         0.109280        -0.357594         0.842812
 H         0.088303         2.156875        -1.553578
 H        -0.816395         0.642553        -1.899734
 H        -3.603791         3.436080        -2.123672
 H        -2.339327         2.546018        -3.094207
 H        -3.704705         1.286003         0.052822
 H        -2.324071        -0.295877         1.032633
 H        -1.635559        -0.819266        -0.645542
 H        -0.469843         3.216586         0.750539
 H        -1.987275         2.630733         1.443611
