19
Iteration:  2213
 O         0.536885         0.556496         0.694047
 C        -0.710708         0.961819         0.194835
 C        -0.723404         1.507011        -1.256302
 C        -1.890928         2.256618        -0.883529
 C        -2.878452         2.725659        -2.059369
 O        -3.615113         1.428722        -1.966061
 C        -2.944887         1.087835        -0.668077
 C        -2.009986        -0.033457        -0.031884
 C        -1.369032         2.467827         0.509566
 H         0.399864         0.411660         1.651022
 H         0.219636         2.092632        -1.247995
 H        -0.811034         0.693882        -2.047632
 H        -3.655763         3.392591        -1.810698
 H        -2.465625         2.732554        -3.086358
 H        -3.608346         1.346272         0.202898
 H        -2.644033        -0.361122         0.843559
 H        -1.675427        -0.955759        -0.563282
 H        -0.612243         3.113298         0.725269
 H        -2.177643         2.693166         1.237412
