19
Iteration:  4609charge 0 multiplicity 1
 O         0.304844         0.414385         0.831791
 C        -0.802799         1.036965         0.158803
 C        -0.605403         1.663730        -1.278788
 C        -2.005993         2.314014        -0.864257
 C        -3.002061         2.685540        -1.931892
 O        -3.414923         1.222927        -2.091464
 C        -2.824233         1.125668        -0.672168
 C        -1.901120         0.056924        -0.138054
 C        -1.385863         2.412765         0.605988
 H         1.098929         1.025452         0.841488
 H         0.163707         2.549058        -1.294095
 H        -0.710558         1.128240        -2.241264
 H        -3.908956         3.269176        -1.708271
 H        -2.608157         3.100638        -2.876308
 H        -3.757424         1.156256        -0.080958
 H        -2.556239        -0.471723         0.619322
 H        -1.525723        -0.638739        -0.852115
 H        -0.574135         3.214083         0.969903
 H        -2.145573         2.508701         1.444149
