19
Iteration:  2511
 O         0.232296         0.426294         0.776753
 C        -0.755932         1.083181         0.086811
 C        -0.592162         1.478732        -1.364657
 C        -1.945521         2.187576        -0.934943
 C        -3.056626         2.725080        -1.833691
 O        -3.415138         1.249086        -1.985041
 C        -2.895075         1.168181        -0.586259
 C        -2.011833         0.146050        -0.082384
 C        -1.210939         2.488640         0.452983
 H         0.373784         0.774199         1.722203
 H         0.239580         2.307639        -1.459727
 H        -0.441001         0.762416        -2.211313
 H        -3.739372         3.281835        -1.209336
 H        -2.803586         3.144426        -2.826960
 H        -3.710984         1.415115         0.224728
 H        -2.222574        -0.460267         0.791753
 H        -1.645905        -0.654575        -0.797876
 H        -0.302655         3.112527         0.260699
 H        -1.824072         2.770022         1.201383
