19
Iteration:  3101charge 0 multiplicity 1
 O         0.219393         0.256453         0.850051
 C        -0.702071         1.105166         0.120032
 C        -0.561270         1.697270        -1.301548
 C        -1.942765         2.286073        -0.894893
 C        -2.992728         2.601406        -1.936888
 O        -3.438559         1.214698        -2.035957
 C        -2.889467         1.166796        -0.588876
 C        -1.958096         0.173639        -0.112995
 C        -1.341677         2.498154         0.496440
 H         1.170674         0.292825         0.477424
 H         0.114850         2.533096        -1.298051
 H        -0.598429         1.018131        -2.129571
 H        -3.863090         3.245376        -1.562682
 H        -2.702603         3.267716        -2.842241
 H        -3.670726         1.433628         0.253414
 H        -2.408738        -0.249092         0.834627
 H        -1.707283        -0.644711        -0.793646
 H        -0.578330         3.223190         0.737608
 H        -2.209965         2.583292         1.146109
