19
Iteration:  1280charge 0 multiplicity 1
 O         0.405755         0.467331         0.681308
 C        -0.785349         0.983872         0.149040
 C        -0.716323         1.675325        -1.278004
 C        -2.025325         2.287023        -0.816073
 C        -2.922523         2.695482        -2.016384
 O        -3.390278         1.328267        -2.059523
 C        -2.882642         1.063190        -0.671885
 C        -1.947360         0.015752        -0.026296
 C        -1.399200         2.414210         0.665624
 H         0.315609         0.465501         1.647470
 H         0.092589         2.373009        -1.576128
 H        -0.774014         0.949352        -2.139955
 H        -3.718598         3.431494        -1.852650
 H        -2.384519         3.115632        -2.887562
 H        -3.908145         1.247709        -0.152008
 H        -2.296434        -0.471837         0.760642
 H        -1.415475        -0.631589        -0.738309
 H        -0.584149         3.261104         0.606318
 H        -2.041687         2.503768         1.529626
