19
Iteration:  3103charge 0 multiplicity 1
 O         0.235231         0.264046         0.846756
 C        -0.708202         1.096160         0.130181
 C        -0.563696         1.685310        -1.284896
 C        -1.939754         2.278328        -0.900908
 C        -3.001016         2.612102        -1.940295
 O        -3.429802         1.220897        -2.041466
 C        -2.901261         1.158254        -0.606124
 C        -1.955077         0.206466        -0.112940
 C        -1.332485         2.477351         0.494835
 H         1.151567         0.259533         0.476679
 H         0.087764         2.505263        -1.376186
 H        -0.675819         1.021732        -2.068910
 H        -3.870361         3.214175        -1.569073
 H        -2.746298         3.250216        -2.826061
 H        -3.677934         1.426340         0.287174
 H        -2.435775        -0.246785         0.880980
 H        -1.671382        -0.594585        -0.778630
 H        -0.650046         3.208961         0.735748
 H        -2.195878         2.612850         1.217912
