19
Iteration:   648
 O         0.426785         0.530251         0.781034
 C        -0.800706         0.968426         0.165222
 C        -0.698656         1.659771        -1.275491
 C        -1.941189         2.350779        -0.854998
 C        -2.963703         2.657898        -1.932080
 O        -3.351186         1.222380        -2.072116
 C        -2.986520         1.138018        -0.689367
 C        -1.990034         0.122429        -0.166873
 C        -1.377235         2.358179         0.695541
 H         1.006364        -0.025153         0.214244
 H         0.094821         2.358736        -1.314870
 H        -0.566811         1.087796        -2.179243
 H        -3.974482         3.122084        -1.508310
 H        -2.790613         3.188794        -2.964501
 H        -3.801255         1.209589         0.092690
 H        -2.371753        -0.463891         0.724883
 H        -1.695562        -0.629282        -0.958528
 H        -0.569883         3.135256         0.942607
 H        -2.054816         2.504620         1.528803
