19
Iteration:   486
 O         0.348846         0.490784         0.782960
 C        -0.778920         1.026130         0.079262
 C        -0.595592         1.680982        -1.205565
 C        -1.949818         2.304178        -0.778451
 C        -3.003547         2.742642        -1.800148
 O        -3.283460         1.224243        -2.103610
 C        -2.914160         1.091483        -0.697642
 C        -2.013030        -0.008766        -0.210298
 C        -1.498532         2.399996         0.580361
 H         1.178410         0.504203         0.158976
 H         0.209411         2.471063        -1.176127
 H        -0.445838         1.140250        -2.187015
 H        -3.901980         3.121699        -1.328056
 H        -2.957190         3.416532        -2.733115
 H        -3.777335         1.443802        -0.076219
 H        -2.351023        -0.504781         0.735549
 H        -1.798151        -0.797681        -0.974442
 H        -0.745045         3.221129         0.800471
 H        -2.026092         2.293911         1.522472
