19
Iteration:  1736
 O         0.390756         0.642488         0.819339
 C        -0.749401         1.049407         0.095865
 C        -0.653896         1.447797        -1.330886
 C        -1.931863         2.217694        -0.869139
 C        -2.887537         2.722324        -1.928021
 O        -3.521829         1.392241        -2.036550
 C        -2.940518         1.044446        -0.675545
 C        -1.986979         0.062739        -0.047618
 C        -1.299015         2.390467         0.552592
 H         0.221924        -0.276175         1.074311
 H         0.218849         2.169490        -1.402146
 H        -0.792764         0.723695        -2.198003
 H        -3.690994         3.408578        -1.548861
 H        -2.592181         3.066670        -2.937347
 H        -3.859619         1.320585         0.084229
 H        -2.359212        -0.291987         0.931541
 H        -1.809214        -0.832329        -0.672245
 H        -0.396198         3.204519         0.462196
 H        -2.064094         2.338284         1.335853
