19
Iteration:  4893
 O         0.238401         0.355822         0.817251
 C        -0.761946         1.059295         0.091536
 C        -0.554312         1.759301        -1.275771
 C        -1.963947         2.274238        -0.836184
 C        -3.009123         2.663950        -1.964437
 O        -3.369102         1.201745        -2.039350
 C        -2.870320         1.112330        -0.689622
 C        -1.917954         0.076861        -0.118531
 C        -1.426823         2.459793         0.592656
 H         1.046597         0.902259         0.852766
 H         0.355359         2.370284        -1.066223
 H        -0.696308         1.241149        -2.233291
 H        -3.863165         3.209814        -1.484912
 H        -2.717668         3.218924        -2.861335
 H        -3.838661         1.351795        -0.099395
 H        -2.223654        -0.511275         0.849070
 H        -1.555386        -0.682292        -0.799440
 H        -0.854943         3.409024         0.612169
 H        -2.123614         2.284584         1.409118
