19
Iteration:  4291
 O         0.283071         0.406417         0.870747
 C        -0.748288         1.037116         0.091458
 C        -0.523446         1.629438        -1.354425
 C        -1.983390         2.277740        -0.859171
 C        -3.079463         2.689162        -1.903792
 O        -3.316460         1.215490        -2.072827
 C        -2.914988         1.163074        -0.655782
 C        -1.999667         0.135728        -0.122675
 C        -1.373104         2.417766         0.587989
 H         1.067428         1.032295         0.969827
 H         0.284984         2.306382        -1.519530
 H        -0.488889         1.030184        -2.274970
 H        -3.934636         3.076685        -1.210767
 H        -2.944996         3.176970        -2.866258
 H        -3.681459         1.324073         0.098926
 H        -2.416308        -0.367261         0.808031
 H        -1.785661        -0.692751        -0.891755
 H        -0.634687         3.186471         0.608514
 H        -2.076707         2.364178         1.329927
