19
Iteration:  1905charge 0 multiplicity 1
 O         0.212406         0.310012         0.847273
 C        -0.649636         1.070073         0.077127
 C        -0.641312         1.557434        -1.431664
 C        -1.938259         2.307934        -0.931791
 C        -3.071083         2.659736        -1.906704
 O        -3.420736         1.231433        -2.043158
 C        -2.938757         1.142762        -0.573457
 C        -1.970677         0.214136        -0.012309
 C        -1.204115         2.470226         0.490045
 H         0.573358         1.026669         1.330018
 H         0.139898         2.242968        -1.618625
 H        -0.706696         0.838115        -2.227935
 H        -4.003853         3.164861        -1.538006
 H        -2.778486         3.138494        -2.901507
 H        -3.807037         1.535934         0.087928
 H        -2.020046        -0.189810         1.014774
 H        -1.764893        -0.720905        -0.462255
 H        -0.336476         3.220630         0.477270
 H        -1.614392         2.596202         1.654126
