19
Iteration:  1875charge 0 multiplicity 1
 O         0.336693         0.444828         0.914040
 C        -0.738951         0.959724         0.161844
 C        -0.665157         1.496078        -1.370568
 C        -1.904912         2.296657        -1.001940
 C        -2.988355         2.749485        -1.865192
 O        -3.470128         1.313646        -1.984452
 C        -2.893340         1.130319        -0.618594
 C        -2.012039        -0.026603        -0.079693
 C        -1.295842         2.562968         0.423225
 H         0.973419         1.229216         0.769383
 H         0.253965         2.068508        -1.561386
 H        -0.797808         0.832139        -2.260378
 H        -3.870237         3.338971        -1.508815
 H        -2.796603         3.099300        -2.903614
 H        -3.698551         1.461226         0.201629
 H        -2.424366        -0.556680         0.924736
 H        -1.697885        -0.869516        -0.736071
 H        -0.406599         3.070326         0.340766
 H        -2.032837         2.757470         1.298633
