19
Iteration:  1144charge 0 multiplicity 1
 O         0.456705         0.573031         0.668259
 C        -0.803178         1.000173         0.148307
 C        -0.679738         1.538539        -1.284252
 C        -1.945187         2.285653        -0.871975
 C        -2.909363         2.766653        -1.987437
 O        -3.392301         1.288453        -2.038959
 C        -2.951860         1.157328        -0.694752
 C        -1.992240         0.039917        -0.005882
 C        -1.432413         2.365204         0.633409
 H         0.458283         0.224980         1.542244
 H         0.303151         2.040046        -1.372048
 H        -0.831029         0.948428        -2.182743
 H        -3.649135         3.571144        -1.705614
 H        -2.558473         2.990673        -3.005822
 H        -3.819360         1.023214         0.056519
 H        -2.326477        -0.304045         0.877700
 H        -1.714003        -0.848039        -0.540277
 H        -0.593581         2.938366         0.912841
 H        -2.340732         2.391761         1.312838
