19
Iteration:   260charge 0 multiplicity 1
 O         0.374712         0.441097         0.812407
 C        -0.722102         1.050293         0.143277
 C        -0.705953         1.761338        -1.289161
 C        -2.000026         2.327973        -0.771233
 C        -3.069037         2.721238        -1.805044
 O        -3.281713         1.260675        -2.133569
 C        -2.889766         1.030891        -0.709069
 C        -1.883213         0.025169        -0.274031
 C        -1.438836         2.438927         0.645377
 H         0.079821        -0.391060         1.098398
 H         0.045691         2.485564        -1.532243
 H        -0.484226         1.004457        -2.018357
 H        -4.030571         3.145949        -1.429432
 H        -2.702509         3.198749        -2.632702
 H        -3.775426         1.143938        -0.055890
 H        -2.301914        -0.646804         0.503018
 H        -1.444277        -0.546284        -1.125619
 H        -0.666317         3.191571         0.768131
 H        -2.305639         2.514250         1.501861
