19
Iteration:  3578
 O         0.213737         0.426034         0.988591
 C        -0.776434         1.048715         0.116590
 C        -0.567011         1.604867        -1.427793
 C        -1.896834         2.332275        -0.991831
 C        -3.020105         2.676798        -1.995738
 O        -3.467039         1.254074        -1.930224
 C        -2.887320         1.136299        -0.596112
 C        -1.953554         0.010723        -0.055253
 C        -1.257742         2.485956         0.405306
 H         1.029686         0.200181         0.440185
 H         0.056347         2.523731        -1.356815
 H        -0.471981         0.964949        -2.288186
 H        -3.812943         3.132040        -1.441566
 H        -2.835831         3.084721        -2.939459
 H        -3.626844         1.460539         0.266254
 H        -2.329975        -0.239677         1.015636
 H        -1.904579        -0.881363        -0.777776
 H        -0.442832         3.276600         0.599453
 H        -1.919295         2.639791         1.313694
