19
Iteration:   347charge 0 multiplicity 1
 O         0.408953         0.557782         0.734559
 C        -0.766197         0.991850         0.135268
 C        -0.730416         1.729719        -1.202439
 C        -2.014340         2.276934        -0.737749
 C        -2.912853         2.743001        -1.912847
 O        -3.384373         1.342015        -2.077325
 C        -2.907877         1.011323        -0.762459
 C        -1.892016        -0.044348        -0.264497
 C        -1.429599         2.350871         0.663958
 H         0.325978         0.361670         1.691425
 H         0.094090         2.417506        -1.364468
 H        -0.775967         1.047451        -2.054057
 H        -3.755796         3.438618        -1.601547
 H        -2.612706         3.108790        -2.837616
 H        -3.758773         1.046422        -0.049119
 H        -2.327974        -0.721647         0.441828
 H        -1.410368        -0.784522        -0.921656
 H        -0.788910         3.179159         0.762304
 H        -2.151854         2.396422         1.601788
