19
Iteration:  3893charge 0 multiplicity 1
 O         0.445282         0.651916         0.832511
 C        -0.732609         1.026894         0.069862
 C        -0.596461         1.558115        -1.314401
 C        -1.875839         2.250199        -0.893523
 C        -2.913213         2.648935        -2.011289
 O        -3.522045         1.257448        -1.971011
 C        -2.966334         1.144518        -0.618089
 C        -2.096832         0.002655        -0.078461
 C        -1.338184         2.453901         0.518841
 H         0.187099        -0.102596         1.457814
 H         0.252404         2.329275        -1.542078
 H        -0.595231         0.757818        -2.058730
 H        -3.475546         3.433806        -1.609344
 H        -2.516144         2.969531        -3.003130
 H        -3.668720         1.502229         0.069637
 H        -2.589564        -0.471905         0.866644
 H        -2.144349        -0.957928        -0.771700
 H        -0.491027         3.092432         0.635409
 H        -2.107223         2.477118         1.316861
