19
Iteration:   856charge 0 multiplicity 1
 O         0.262572         0.453993         0.891177
 C        -0.770539         1.011985         0.120833
 C        -0.623328         1.617973        -1.343211
 C        -1.966059         2.305306        -0.943234
 C        -3.077951         2.743187        -1.838792
 O        -3.424261         1.272057        -2.074371
 C        -2.846725         1.067715        -0.650384
 C        -1.910715         0.039739        -0.029523
 C        -1.293742         2.470133         0.524409
 H         0.959293         0.225844         0.219710
 H         0.107107         2.405757        -1.423953
 H        -0.720596         0.987647        -2.281188
 H        -3.904580         3.352846        -1.481437
 H        -2.606085         3.121101        -2.753210
 H        -3.804172         1.179580        -0.123827
 H        -2.355636        -0.512129         0.839103
 H        -1.529646        -0.657140        -0.897225
 H        -0.340221         3.188634         0.594531
 H        -1.968111         2.611925         1.386457
