19
Iteration:  4468charge 0 multiplicity 1
 O         0.477512         0.543946         0.826215
 C        -0.749218         0.977241         0.121760
 C        -0.653292         1.639487        -1.269187
 C        -1.916843         2.223999        -0.831400
 C        -2.954720         2.703883        -1.969361
 O        -3.394659         1.305737        -2.044477
 C        -2.940833         1.068971        -0.750914
 C        -2.086985        -0.004591        -0.156409
 C        -1.471742         2.400992         0.623412
 H         0.929496         1.424526         0.967398
 H         0.267211         2.318458        -1.232997
 H        -0.656595         0.949891        -2.079348
 H        -3.606009         3.487706        -1.542531
 H        -2.359552         3.153159        -2.818805
 H        -3.764585         1.227597         0.061768
 H        -2.605622        -0.584003         0.765989
 H        -1.841942        -0.757069        -0.939773
 H        -0.777939         3.263786         0.903074
 H        -2.237808         2.389550         1.411113
