19
Iteration:  4098
 O         0.464155         0.500258         0.726286
 C        -0.771453         1.041368         0.195609
 C        -0.603986         1.611255        -1.202656
 C        -2.000409         2.261722        -0.913735
 C        -2.924903         2.671843        -2.009325
 O        -3.606106         1.359520        -2.069235
 C        -2.900757         1.070089        -0.686954
 C        -1.921520        -0.041714        -0.025857
 C        -1.357912         2.419701         0.561750
 H         0.544916         0.945450         1.611024
 H         0.224788         2.338242        -1.214130
 H        -0.590623         1.053138        -2.122665
 H        -3.664555         3.476381        -1.886633
 H        -2.430509         2.996944        -2.980983
 H        -3.727371         1.219935        -0.015515
 H        -2.466033        -0.418889         0.819470
 H        -1.615729        -0.800892        -0.642863
 H        -0.642502         3.268059         0.750480
 H        -2.205089         2.345684         1.358416
