19
Iteration:  1808
 O         0.374823         0.425841         0.792832
 C        -0.747261         1.011835         0.113249
 C        -0.663445         1.660352        -1.317219
 C        -1.985256         2.316892        -0.875386
 C        -2.941093         2.651012        -2.033200
 O        -3.380297         1.221771        -1.926361
 C        -2.982987         1.191173        -0.547890
 C        -2.030443         0.106183        -0.072681
 C        -1.317703         2.481492         0.502842
 H         0.662827        -0.302556         0.253903
 H         0.162988         2.362846        -1.329255
 H        -0.651456         0.955137        -2.164344
 H        -3.600525         3.541768        -1.932647
 H        -2.376203         2.837032        -2.979435
 H        -3.830319         1.447090         0.134038
 H        -2.464443        -0.455412         0.846756
 H        -1.876918        -0.802791        -0.659459
 H        -0.528344         3.164978         0.517202
 H        -2.005392         2.459898         1.442554
