19
Iteration:  2814
 O         0.499592         0.499476         0.661852
 C        -0.705602         0.978389         0.132663
 C        -0.708420         1.580794        -1.303954
 C        -1.974149         2.273490        -0.833165
 C        -2.827247         2.664597        -2.096345
 O        -3.474211         1.295531        -1.937079
 C        -2.924848         1.171433        -0.594019
 C        -2.057690         0.078823         0.016585
 C        -1.474902         2.471016         0.574712
 H         0.412173        -0.253601         1.196796
 H         0.064824         2.313901        -1.390071
 H        -0.797397         1.212457        -2.272352
 H        -3.494215         3.493788        -1.926383
 H        -2.215278         2.746113        -3.006717
 H        -3.718752         1.450935         0.060517
 H        -2.591264        -0.393720         0.971057
 H        -1.922995        -0.885823        -0.634162
 H        -0.581303         3.155691         0.434750
 H        -2.097714         2.416537         1.434563
