19
Iteration:  3838
 O         0.427833         0.473186         0.778304
 C        -0.765444         1.011244         0.189421
 C        -0.664131         1.590096        -1.312880
 C        -1.965472         2.267740        -0.876464
 C        -2.940786         2.611018        -1.974928
 O        -3.412144         1.237296        -2.053955
 C        -2.949789         1.126964        -0.620384
 C        -2.016330         0.153765         0.022913
 C        -1.348601         2.556488         0.460274
 H         0.307689        -0.488271         0.847004
 H         0.192851         2.402278        -1.251829
 H        -0.641953         0.815643        -2.123949
 H        -3.721694         3.275382        -1.576389
 H        -2.566519         3.125574        -2.908384
 H        -3.790079         1.360458         0.091135
 H        -2.577543        -0.336445         0.937988
 H        -1.723248        -0.715077        -0.765413
 H        -0.560976         3.319119         0.379855
 H        -1.972413         2.662347         1.346293
