19
Iteration:  4665charge 0 multiplicity 1
 O         0.318811         0.398198         0.842679
 C        -0.767414         1.070217         0.169447
 C        -0.662529         1.724608        -1.249393
 C        -2.068869         2.281752        -0.868306
 C        -2.973782         2.729982        -1.988305
 O        -3.374582         1.293686        -2.097605
 C        -2.874613         1.014896        -0.677645
 C        -1.875569         0.016904        -0.091310
 C        -1.404243         2.394894         0.587838
 H         1.134489         0.834465         0.959577
 H         0.110529         2.563821        -1.498890
 H        -0.806861         1.105380        -2.154838
 H        -3.756800         3.428395        -1.581151
 H        -2.629628         3.128077        -2.978199
 H        -3.784891         1.186354        -0.100513
 H        -2.307311        -0.347129         0.881111
 H        -1.498671        -0.709901        -0.780577
 H        -0.567759         3.185996         0.459752
 H        -2.093091         2.342429         1.508113
