19
Iteration:  4520
 O         0.230195         0.311788         0.869305
 C        -0.697611         1.036607         0.107702
 C        -0.645935         1.807860        -1.282752
 C        -1.971237         2.316886        -0.785241
 C        -3.039043         2.618221        -1.913718
 O        -3.329509         1.183983        -2.134841
 C        -2.961311         1.167751        -0.680583
 C        -1.870400         0.034361        -0.143828
 C        -1.408041         2.478580         0.542102
 H         1.177221         0.710748         0.829869
 H         0.153310         2.617003        -1.378187
 H        -0.542213         1.225676        -2.243610
 H        -3.900745         3.130805        -1.500239
 H        -2.665559         3.195528        -2.716745
 H        -3.707067         1.478987         0.069588
 H        -2.128475        -0.237316         0.889032
 H        -1.680437        -0.833628        -0.736199
 H        -0.502515         3.246787         0.734378
 H        -2.110811         2.591171         1.395399
