19
Iteration:  4985
 O         0.257486         0.338348         0.840563
 C        -0.740113         1.035277         0.184074
 C        -0.635261         1.732237        -1.282783
 C        -2.011647         2.306988        -0.905023
 C        -3.062223         2.709107        -1.926169
 O        -3.332553         1.244023        -2.122713
 C        -2.869281         1.058681        -0.666092
 C        -1.897880         0.125523        -0.119578
 C        -1.353867         2.415440         0.582803
 H         1.018783         0.939494         0.852583
 H         0.228186         2.428237        -1.302401
 H        -0.628140         1.010628        -2.134161
 H        -4.080755         3.043071        -1.573651
 H        -2.825147         3.308772        -2.829597
 H        -3.699973         1.182138         0.089877
 H        -2.281523        -0.149763         0.771507
 H        -1.662088        -0.811772        -0.614442
 H        -0.584479         3.202655         0.611928
 H        -2.054756         2.515375         1.454736
