19
Iteration:  3161
 O         0.439413         0.602581         0.770136
 C        -0.774792         1.030692         0.101602
 C        -0.700613         1.371342        -1.341037
 C        -2.059576         2.207811        -0.793266
 C        -2.807241         2.820565        -1.949081
 O        -3.384165         1.337463        -2.110398
 C        -3.040016         1.119473        -0.645739
 C        -2.051518         0.032550        -0.014776
 C        -1.359858         2.375366         0.624115
 H         1.266487         1.073997         0.460633
 H         0.019335         2.165354        -1.611512
 H        -0.576156         0.599177        -2.150246
 H        -3.705139         3.354299        -1.690001
 H        -2.172406         3.128899        -2.696825
 H        -3.924691         1.369049         0.089379
 H        -2.498092        -0.261515         0.926168
 H        -1.727631        -0.898333        -0.594748
 H        -0.601613         3.233008         0.678815
 H        -2.057149         2.297172         1.471740
