19
Iteration:  1545
 O         0.267017         0.344973         0.951244
 C        -0.763798         0.960903         0.119519
 C        -0.620854         1.709666        -1.332356
 C        -1.959677         2.325391        -0.881242
 C        -3.024755         2.659235        -1.961058
 O        -3.406740         1.261465        -1.981417
 C        -2.879819         1.180627        -0.628444
 C        -1.942855         0.033382        -0.176622
 C        -1.354611         2.525851         0.473830
 H         1.113486         0.548573         0.575236
 H         0.198281         2.514519        -1.417333
 H        -0.555117         0.992881        -2.196369
 H        -3.770016         3.276261        -1.459684
 H        -2.696104         3.006412        -2.952490
 H        -3.514139         1.459417         0.205722
 H        -2.304499        -0.483395         0.769444
 H        -1.716099        -0.707023        -0.976783
 H        -0.458207         2.978320         0.559586
 H        -2.125992         2.560211         1.241308
