19
Iteration:  2898charge 0 multiplicity 1
 O         0.359107         0.599199         0.763912
 C        -0.765859         1.050446         0.139115
 C        -0.660089         1.433102        -1.301699
 C        -1.959002         2.233080        -0.897830
 C        -2.979650         2.797199        -1.822070
 O        -3.471352         1.341675        -2.074247
 C        -2.906127         1.057561        -0.691535
 C        -1.984270        -0.037714        -0.081571
 C        -1.271732         2.410135         0.464991
 H         0.287474         0.883054         1.747105
 H         0.193232         2.184980        -1.417738
 H        -0.635958         0.627336        -2.138299
 H        -3.680637         3.535892        -1.366020
 H        -2.589582         3.296823        -2.683917
 H        -3.819025         1.394002        -0.016290
 H        -2.409670        -0.289955         0.820695
 H        -1.627707        -0.904689        -0.561479
 H        -0.410159         2.959623         0.670073
 H        -1.806589         2.527577         1.408759
