19
Iteration:  4748charge 0 multiplicity 1
 O         0.226067         0.298817         0.907979
 C        -0.698023         1.080596         0.168685
 C        -0.692124         1.731606        -1.343830
 C        -2.034057         2.269410        -0.883859
 C        -3.046077         2.633498        -1.924155
 O        -3.370745         1.264269        -2.089598
 C        -2.825656         1.084744        -0.773322
 C        -1.841995         0.101221        -0.140136
 C        -1.373286         2.485992         0.604650
 H         1.098567         0.811828         0.994668
 H        -0.135048         2.684729        -1.360458
 H        -0.556792         1.054149        -2.188204
 H        -3.804121         3.298590        -1.410443
 H        -2.636060         3.197894        -2.801159
 H        -3.593810         1.242306         0.087424
 H        -2.121664        -0.375009         0.872716
 H        -1.660247        -0.814561        -0.763505
 H        -0.660855         3.293438         0.813370
 H        -2.098580         2.536135         1.383248
