19
Iteration:   973charge 0 multiplicity 1
 O         0.376858         0.466386         0.698927
 C        -0.819364         0.980135         0.168339
 C        -0.636865         1.570403        -1.277447
 C        -1.960504         2.317738        -0.876858
 C        -3.085070         2.749128        -1.870653
 O        -3.367675         1.211799        -2.099105
 C        -2.916410         1.135857        -0.752060
 C        -1.975799         0.056778         0.009886
 C        -1.270333         2.453885         0.503831
 H         0.403099         0.649465         1.710687
 H         0.253922         2.160630        -1.206033
 H        -0.842477         1.005982        -2.173940
 H        -3.836432         3.237012        -1.309831
 H        -2.648890         3.274755        -2.660607
 H        -3.734701         1.475417         0.090538
 H        -2.337976        -0.143214         0.975505
 H        -1.693636        -0.748423        -0.546267
 H        -0.502313         3.170281         0.482042
 H        -1.846861         2.487983         1.387273
