19
Iteration:  3040
 O         0.470109         0.558711         0.828438
 C        -0.655257         0.999877         0.111288
 C        -0.629400         1.492902        -1.312561
 C        -1.983943         2.153763        -0.848129
 C        -2.899010         2.769386        -1.991711
 O        -3.536173         1.411341        -2.050378
 C        -2.990714         1.103716        -0.645648
 C        -2.021971         0.040318        -0.091284
 C        -1.360184         2.320013         0.532201
 H         0.381555         1.177249         1.647839
 H         0.288674         2.129699        -1.581344
 H        -0.791574         0.767686        -2.214247
 H        -3.602146         3.478638        -1.577566
 H        -2.494134         3.152732        -2.897261
 H        -3.785678         1.330755        -0.022133
 H        -2.461623        -0.399476         0.927886
 H        -1.786930        -0.742623        -0.775625
 H        -0.684684         3.198512         0.767533
 H        -2.131289         2.418959         1.443002
