19
Iteration:  2484charge 0 multiplicity 1
 O         0.428067         0.396629         0.745836
 C        -0.712061         0.984295         0.114711
 C        -0.705836         1.576489        -1.349703
 C        -1.921322         2.342577        -0.932909
 C        -3.017978         2.709408        -1.991852
 O        -3.419457         1.245276        -1.949895
 C        -2.897809         1.185509        -0.639000
 C        -2.095807         0.055328        -0.013317
 C        -1.274215         2.479939         0.514495
 H         0.400983         0.637390         1.733233
 H         0.224794         2.071938        -1.480668
 H        -0.852489         0.899660        -2.193842
 H        -3.772164         3.514258        -1.509733
 H        -2.809278         3.049416        -3.066916
 H        -3.611548         1.366257         0.190824
 H        -2.456999        -0.213461         1.017830
 H        -1.868731        -0.850521        -0.516241
 H        -0.387257         3.080003         0.558449
 H        -2.112972         2.761209         1.317745
