19
Iteration:  2565
 O         0.433716         0.591289         0.670820
 C        -0.752365         0.986877         0.116178
 C        -0.584691         1.492436        -1.266024
 C        -1.966334         2.176367        -0.917796
 C        -2.825633         2.666162        -1.997875
 O        -3.567887         1.369833        -1.898698
 C        -3.035519         1.200447        -0.628347
 C        -2.035432         0.037897        -0.048726
 C        -1.348065         2.386559         0.500758
 H         0.560477         0.651793         1.655679
 H         0.226113         2.365962        -1.361583
 H        -0.605570         0.790091        -2.152825
 H        -3.475467         3.543925        -1.680183
 H        -2.249411         2.675848        -3.011655
 H        -3.885524         1.440728         0.113830
 H        -2.359805        -0.320660         0.902200
 H        -1.565380        -0.768414        -0.696430
 H        -0.565304         3.182893         0.676865
 H        -1.976784         2.296083         1.318634
