19
Iteration:  1214
 O         0.332287         0.503020         0.814881
 C        -0.745019         0.971220         0.098415
 C        -0.593666         1.593866        -1.306319
 C        -1.921358         2.315218        -0.865674
 C        -3.051241         2.776425        -1.934941
 O        -3.436669         1.261782        -2.014380
 C        -2.883665         1.075666        -0.746238
 C        -1.908872         0.060731        -0.082912
 C        -1.384497         2.466477         0.591941
 H         0.049210        -0.138605         1.504813
 H         0.303205         2.216711        -1.479854
 H        -0.730634         0.960546        -2.244445
 H        -3.947665         3.331708        -1.600456
 H        -2.804757         3.149866        -2.940049
 H        -3.622085         1.345650         0.075738
 H        -2.256177        -0.395647         0.736551
 H        -1.626719        -0.793705        -0.729636
 H        -0.361862         3.025234         0.632084
 H        -2.083678         2.544701         1.405749
