19
Iteration:  3037charge 0 multiplicity 1
 O         0.471431         0.580476         0.827503
 C        -0.664146         0.973460         0.109422
 C        -0.636678         1.482501        -1.331574
 C        -2.006241         2.195791        -0.851220
 C        -2.901952         2.748839        -1.965056
 O        -3.522356         1.428236        -2.059040
 C        -2.958779         1.104520        -0.655149
 C        -2.018733         0.006573        -0.083135
 C        -1.358941         2.325119         0.506409
 H         0.409479         1.068469         1.679088
 H         0.190698         2.173498        -1.470603
 H        -0.672826         0.726840        -2.112827
 H        -3.605304         3.515666        -1.587092
 H        -2.481910         3.239418        -2.877570
 H        -3.870283         1.292967         0.060071
 H        -2.471236        -0.271453         1.042528
 H        -1.909391        -0.889144        -0.739479
 H        -0.751062         3.133367         0.769011
 H        -2.086808         2.423275         1.398755
