19
Iteration:  4669
 O         0.311188         0.439920         0.833127
 C        -0.710907         1.022482         0.178421
 C        -0.660385         1.682644        -1.257823
 C        -2.078976         2.283546        -0.860211
 C        -2.983866         2.714444        -2.025911
 O        -3.376694         1.332841        -2.113571
 C        -2.894500         1.019949        -0.650625
 C        -1.881873         0.047187        -0.097973
 C        -1.415274         2.378552         0.605658
 H         1.170005         0.958521         0.967318
 H        -0.042120         2.453490        -1.507630
 H        -0.778993         1.086931        -2.154864
 H        -3.669897         3.369546        -1.545670
 H        -2.501826         3.168491        -2.877908
 H        -3.801272         1.083525         0.002521
 H        -2.279213        -0.385817         0.795331
 H        -1.444173        -0.805653        -0.765062
 H        -0.683059         3.101128         0.607262
 H        -2.029663         2.410248         1.488399
