19
Iteration:  1804
 O         0.355203         0.443910         0.790042
 C        -0.748614         1.004239         0.117961
 C        -0.656066         1.641826        -1.351374
 C        -1.990987         2.287387        -0.847450
 C        -2.940478         2.669822        -2.030486
 O        -3.366398         1.196944        -1.944258
 C        -2.973297         1.181765        -0.553234
 C        -2.049673         0.126565        -0.057316
 C        -1.315508         2.486329         0.545238
 H         0.462529        -0.335747         0.135470
 H         0.213681         2.299928        -1.358121
 H        -0.580063         0.964346        -2.179480
 H        -3.646204         3.483485        -1.746091
 H        -2.432671         2.856207        -2.980966
 H        -3.878002         1.517632         0.148233
 H        -2.330588        -0.325132         0.807231
 H        -1.782758        -0.656668        -0.826491
 H        -0.393678         3.227518         0.449328
 H        -1.972546         2.534019         1.369572
