19
Iteration:  3843charge 0 multiplicity 1
 O         0.427994         0.478530         0.761108
 C        -0.770627         1.055262         0.204006
 C        -0.679605         1.562514        -1.299736
 C        -1.957689         2.246149        -0.882096
 C        -2.918682         2.556566        -2.013216
 O        -3.451851         1.286775        -2.046787
 C        -2.949335         1.112073        -0.645604
 C        -2.002840         0.120075         0.003370
 C        -1.336796         2.577612         0.540990
 H         0.498440        -0.481378         0.905283
 H         0.071690         2.307925        -1.359243
 H        -0.779531         0.929178        -2.180448
 H        -3.641281         3.411738        -1.672778
 H        -2.435574         3.028036        -2.850104
 H        -3.835181         1.362934         0.024315
 H        -2.414061        -0.325621         0.840111
 H        -1.713099        -0.669721        -0.590328
 H        -0.556329         3.328073         0.390627
 H        -2.038040         2.697072         1.392578
