19
Iteration:  2454charge 0 multiplicity 1
 O         0.440521         0.543461         0.605995
 C        -0.704719         1.049673         0.100864
 C        -0.675724         1.483867        -1.275295
 C        -2.004615         2.267012        -0.840711
 C        -2.839422         2.643385        -2.026332
 O        -3.522737         1.346725        -2.036448
 C        -3.048048         1.154847        -0.571641
 C        -2.035325         0.081225         0.079932
 C        -1.283393         2.423072         0.552628
 H         0.143591         0.074508         1.354528
 H         0.314312         2.103872        -1.400450
 H        -0.833235         0.673614        -2.060560
 H        -3.346282         3.561071        -1.841565
 H        -2.209892         2.836733        -2.972252
 H        -3.907434         1.167774         0.209002
 H        -2.225414        -0.246648         1.051757
 H        -1.711852        -0.745880        -0.588182
 H        -0.515260         3.128376         0.714301
 H        -1.915029         2.567905         1.400105
