19
Iteration:  2111charge 0 multiplicity 1
 O         0.457068         0.560532         0.620563
 C        -0.803849         1.002065         0.151695
 C        -0.687691         1.423486        -1.260168
 C        -1.955277         2.266296        -0.875173
 C        -2.924670         2.730447        -1.940432
 O        -3.403612         1.288692        -2.040336
 C        -2.952246         1.156907        -0.658373
 C        -2.069772         0.046424         0.077352
 C        -1.288980         2.523402         0.537146
 H         0.328327         0.043349         1.433353
 H         0.092447         2.194833        -1.559677
 H        -0.877183         0.761329        -2.156080
 H        -3.771666         3.349444        -1.640295
 H        -2.565447         3.049497        -2.965407
 H        -3.858539         1.269472         0.034147
 H        -2.489718        -0.385669         1.034747
 H        -1.706627        -0.847610        -0.432160
 H        -0.464576         3.182372         0.486667
 H        -1.959865         2.607025         1.311687
