19
Iteration:  1037charge 0 multiplicity 1
 O         0.413617         0.471210         0.710719
 C        -0.790184         1.033184         0.194127
 C        -0.598962         1.681488        -1.266742
 C        -1.966403         2.250447        -0.887634
 C        -2.956666         2.607820        -2.077753
 O        -3.531823         1.371514        -1.952736
 C        -2.939397         1.089696        -0.652281
 C        -1.946960         0.012691        -0.083253
 C        -1.335724         2.491026         0.587393
 H         0.321776        -0.302081         1.283588
 H         0.228186         2.424726        -1.141791
 H        -0.434994         1.056671        -2.162730
 H        -3.742313         3.339128        -1.886200
 H        -2.575013         2.749349        -3.084894
 H        -3.711473         1.300535         0.041607
 H        -2.315679        -0.427038         0.925915
 H        -1.524141        -0.781194        -0.812115
 H        -0.519141         3.167551         0.701643
 H        -2.041038         2.593112         1.460348
