19
Iteration:   788
 O         0.467939         0.560828         0.714663
 C        -0.731826         0.995673         0.130518
 C        -0.639115         1.589976        -1.278360
 C        -2.009138         2.247353        -0.773853
 C        -2.923944         2.776059        -1.989879
 O        -3.487240         1.355254        -2.060424
 C        -2.952736         0.978749        -0.659479
 C        -1.958423        -0.006544        -0.062001
 C        -1.428507         2.519672         0.600991
 H         0.461475        -0.456951         0.870466
 H         0.261559         2.331038        -1.353947
 H        -0.624580         0.862225        -2.190310
 H        -3.709650         3.544804        -2.055686
 H        -2.311300         2.912891        -2.862965
 H        -3.893663         1.130443        -0.066492
 H        -2.387239        -0.323541         0.949339
 H        -1.646547        -0.996240        -0.531836
 H        -0.540032         3.295809         0.908297
 H        -2.190271         2.435315         1.469229
