19
Iteration:  2675
 O         0.472124         0.579218         0.673190
 C        -0.779944         1.012529         0.167244
 C        -0.677515         1.440597        -1.307472
 C        -1.932867         2.240801        -0.941032
 C        -2.885794         2.713636        -2.024585
 O        -3.534974         1.321436        -1.954731
 C        -3.012497         1.159703        -0.647485
 C        -2.005784         0.051431        -0.050581
 C        -1.307296         2.468087         0.665881
 H         0.224345         0.234699         1.541140
 H         0.317831         1.964100        -1.385989
 H        -0.628575         0.703001        -2.157278
 H        -3.715657         3.411661        -1.706882
 H        -2.281427         2.927473        -2.974015
 H        -3.785912         1.427181        -0.050555
 H        -2.286787        -0.499538         0.762021
 H        -1.688981        -0.754633        -0.687332
 H        -0.486885         3.202402         0.639953
 H        -2.057318         2.533008         1.398348
