19
Iteration:  3947
 O         0.314769         0.403565         0.865737
 C        -0.733027         1.028470         0.084442
 C        -0.665068         1.588448        -1.431007
 C        -1.942565         2.263411        -0.839596
 C        -3.046887         2.727291        -1.903428
 O        -3.393562         1.182526        -2.030721
 C        -2.930010         1.107062        -0.693965
 C        -1.957483         0.132557         0.008115
 C        -1.258670         2.508786         0.457652
 H         0.381136         0.871028         1.754994
 H         0.190702         2.344916        -1.505829
 H        -0.740794         0.920542        -2.274985
 H        -3.905476         3.262473        -1.537447
 H        -2.530680         2.991602        -2.844692
 H        -3.686465         1.481716        -0.012134
 H        -2.526586        -0.144910         0.975091
 H        -1.616488        -0.749512        -0.680478
 H        -0.593562         3.346650         0.452825
 H        -1.918215         2.609737         1.343930
