19
Iteration:  4308charge 0 multiplicity 1
 O         0.333645         0.527571         0.904026
 C        -0.772951         1.016936         0.123299
 C        -0.725561         1.532908        -1.309031
 C        -1.947465         2.335290        -0.838289
 C        -3.063382         2.750029        -1.875668
 O        -3.315518         1.326513        -2.122423
 C        -2.890188         1.047267        -0.694938
 C        -1.962741        -0.080671        -0.110702
 C        -1.327762         2.444250         0.541525
 H         1.124835         1.153221         0.783077
 H         0.143834         2.225959        -1.567016
 H        -0.812282         0.739070        -2.092469
 H        -3.946157         3.252962        -1.576685
 H        -2.725170         3.323388        -2.769856
 H        -3.822658         1.361695        -0.128390
 H        -2.377599        -0.515190         0.776274
 H        -1.731139        -0.793702        -0.860990
 H        -0.432290         3.140236         0.632039
 H        -2.043299         2.486816         1.488256
