19
Iteration:  3421charge 0 multiplicity 1
 O         0.398639         0.538509         0.920115
 C        -0.744166         1.012723         0.133098
 C        -0.740868         1.556279        -1.380038
 C        -1.955502         2.238051        -0.850398
 C        -2.938987         2.774071        -2.010864
 O        -3.477350         1.410155        -2.000975
 C        -2.957572         1.033287        -0.745813
 C        -1.895204        -0.024252        -0.101989
 C        -1.349173         2.381413         0.543092
 H         0.649575         1.208016         1.577853
 H         0.159606         2.148103        -1.590940
 H        -0.895765         0.659938        -2.036851
 H        -3.603632         3.411128        -1.565632
 H        -2.542396         3.085988        -3.017959
 H        -3.847146         1.103147         0.039384
 H        -2.410805        -0.322795         0.757087
 H        -1.381968        -0.892665        -0.627369
 H        -0.495785         3.091265         0.518243
 H        -2.010259         2.268031         1.415633
