19
Iteration:  2259charge 0 multiplicity 1
 O         0.390511         0.381767         0.795485
 C        -0.747782         0.968283         0.082181
 C        -0.721288         1.572033        -1.374336
 C        -1.943911         2.377143        -0.840013
 C        -3.079530         2.722108        -1.944864
 O        -3.317380         1.192202        -1.971798
 C        -2.891401         1.177807        -0.665569
 C        -2.049513         0.073153        -0.018640
 C        -1.267340         2.557099         0.435393
 H         0.232451         0.165466         1.685732
 H         0.129332         2.241822        -1.388789
 H        -0.942578         1.041567        -2.269056
 H        -3.783700         3.202737        -1.253447
 H        -2.789320         3.073644        -2.874297
 H        -3.816808         1.460850         0.012225
 H        -2.384101        -0.217666         0.961151
 H        -1.944774        -0.899462        -0.650628
 H        -0.319295         3.143565         0.317200
 H        -1.748541         2.822607         1.407079
