19
Iteration:  4499charge 0 multiplicity 1
 O         0.218059         0.307035         0.833646
 C        -0.735832         1.117317         0.093939
 C        -0.677522         1.750335        -1.271296
 C        -2.043664         2.281384        -0.857090
 C        -3.001083         2.696237        -2.005563
 O        -3.350822         1.258154        -2.031628
 C        -2.875376         1.037801        -0.705111
 C        -1.861928         0.081571        -0.082610
 C        -1.355152         2.447757         0.636599
 H         0.986612         0.875727         0.910751
 H         0.140355         2.523463        -1.431445
 H        -0.586052         1.171336        -2.220359
 H        -3.821284         3.381546        -1.857416
 H        -2.478675         2.968537        -2.909324
 H        -3.720664         0.853777         0.045541
 H        -2.323634        -0.520927         0.797447
 H        -1.478936        -0.525032        -0.883289
 H        -0.619433         3.431412         0.675476
 H        -1.987277         2.434368         1.558434
