19
Iteration:  3524charge 0 multiplicity 1
 C         0.086766        -0.303224        -0.209624
 C         1.460948         0.171620         0.022113
 C         1.935129         0.607861         1.455229
 C         3.503392         0.375804         1.328754
 C         3.982643         0.629316        -0.146326
 C         3.168834         1.322546        -1.178004
 O         1.750155         1.097568        -0.938436
 C         3.495477        -0.703364         0.283722
 O         2.220281        -1.090644        -0.206095
 H        -0.282518        -0.895850         0.664665
 H        -0.536391         0.565740        -0.349374
 H         0.023612        -0.933246        -1.041302
 H         1.759180         1.704637         1.599888
 H         1.511398        -0.036410         2.195462
 H         4.052214         0.352930         2.271897
 H         4.995453         0.694906        -0.211603
 H         3.483812         2.411134        -1.083199
 H         3.443424         1.005744        -2.164226
 H         4.226651        -1.555834         0.309736
