19
Iteration:  4343
 C         0.104057        -0.356631        -0.133833
 C         1.525038         0.143761         0.010517
 C         1.950728         0.730709         1.413814
 C         3.378031         0.332349         1.335969
 C         3.972913         0.649669        -0.062924
 C         3.088424         1.182396        -1.148753
 O         1.724064         1.205212        -0.866531
 C         3.627660        -0.813242         0.253490
 O         2.241358        -1.011266        -0.332041
 H         0.052686        -1.393234         0.280198
 H        -0.554633         0.489390         0.287007
 H        -0.086071        -0.516200        -1.222712
 H         1.789592         1.808901         1.406859
 H         1.405988         0.296668         2.316516
 H         4.007207         0.503754         2.142897
 H         5.032454         0.964762        -0.249873
 H         3.271823         2.211618        -1.636680
 H         3.554800         0.504450        -1.885204
 H         4.119816        -1.765909         0.271191
