19
Iteration:  1846
 C         0.041945        -0.223200        -0.143843
 C         1.473969         0.112270         0.078076
 C         2.067836         0.680792         1.378401
 C         3.532991         0.347362         1.248350
 C         3.950603         0.685573        -0.195973
 C         3.045841         1.411083        -1.110451
 O         1.746815         0.934618        -1.054017
 C         3.618133        -0.811371         0.194228
 O         2.163137        -1.088374        -0.007959
 H        -0.467528        -0.700378         0.793858
 H        -0.608144         0.682159        -0.310807
 H        -0.053702        -0.862455        -1.014227
 H         1.899055         1.765366         1.428088
 H         1.686135         0.339773         2.376551
 H         4.236707         0.464209         2.011813
 H         5.021200         0.821651        -0.295671
 H         3.175218         2.524068        -0.912261
 H         3.306124         1.344899        -2.138056
 H         4.272560        -1.729884         0.218160
