19
Iteration:  3733
 C        -0.019722        -0.396463        -0.147065
 C         1.401620         0.190035         0.044720
 C         1.959735         0.605530         1.451238
 C         3.482948         0.370142         1.302172
 C         4.021242         0.621650        -0.084427
 C         3.226165         1.293887        -1.187920
 O         1.773705         1.198992        -0.961620
 C         3.491783        -0.778089         0.297657
 O         2.261625        -1.006187        -0.268526
 H        -0.145437        -1.111230         0.548367
 H        -0.761478         0.389432        -0.078378
 H        -0.277157        -0.909108        -1.106153
 H         1.661719         1.621829         1.551652
 H         1.726406        -0.016479         2.266711
 H         4.116598         0.644323         2.141591
 H         5.178558         0.804331        -0.151777
 H         3.581765         2.267194        -1.252909
 H         3.336880         0.659977        -2.083126
 H         4.056096        -1.676952         0.278945
