19
Iteration:  1115
 C        -0.093216        -0.181349        -0.054872
 C         1.458374         0.104733         0.028747
 C         1.940049         0.586089         1.367701
 C         3.500187         0.419288         1.233170
 C         3.998556         0.627628        -0.193230
 C         3.155826         1.333122        -1.209747
 O         1.738482         1.049213        -0.993629
 C         3.626318        -0.745581         0.343458
 O         2.319373        -1.124167        -0.133056
 H        -0.415314        -0.890218         0.791754
 H        -0.584938         0.824851         0.002978
 H        -0.386375        -0.586559        -1.039977
 H         1.567123         1.569107         1.585107
 H         1.569207        -0.077954         2.103505
 H         4.075425         0.745763         2.084061
 H         5.085560         0.661511        -0.182329
 H         3.298055         2.394558        -1.141486
 H         3.334972         1.068253        -2.309816
 H         4.306680        -1.612711         0.499119
