19
Iteration:  3145charge 0 multiplicity 1
 C        -0.018706        -0.381497        -0.204471
 C         1.455135         0.120860         0.042239
 C         1.932406         0.648246         1.429007
 C         3.428506         0.348828         1.265044
 C         4.077530         0.595385        -0.095044
 C         3.100462         1.239420        -1.182104
 O         1.755792         1.242315        -0.841773
 C         3.588095        -0.737009         0.249016
 O         2.274715        -1.035375        -0.245867
 H        -0.183754        -1.166995         0.556200
 H        -0.566640         0.536250         0.003769
 H        -0.119340        -0.591804        -1.250789
 H         1.700405         1.687470         1.576070
 H         1.521352        -0.025920         2.169646
 H         4.174836         0.600545         2.011970
 H         5.111767         0.795470        -0.118170
 H         3.334535         2.343338        -1.414425
 H         3.239301         0.640217        -2.094491
 H         4.342129        -1.506212         0.470860
