19
Iteration:  1466
 C        -0.128258        -0.233440         0.024285
 C         1.503737         0.148625        -0.033466
 C         2.000647         0.598343         1.330933
 C         3.527262         0.423559         1.221693
 C         4.073262         0.736505        -0.141057
 C         3.143482         1.574279        -1.092209
 O         1.811280         0.824869        -1.212151
 C         3.535110        -0.825758         0.250040
 O         2.209539        -1.123148         0.002140
 H        -0.239480        -0.832444         0.890383
 H        -0.798430         0.670068         0.118285
 H        -0.277062        -0.760907        -0.887143
 H         1.702885         1.721354         1.506719
 H         1.702359        -0.105403         2.107209
 H         4.108440         0.570602         2.135200
 H         5.071871         0.453462        -0.340359
 H         2.976451         2.524463        -0.470454
 H         3.302050         1.872197        -2.088845
 H         4.065262        -1.786709         0.208463
