19
Iteration:  2221charge 0 multiplicity 1
 C         0.068329        -0.264188        -0.075054
 C         1.446011         0.059980         0.061511
 C         1.971238         0.684508         1.282074
 C         3.451472         0.451185         1.156608
 C         3.998155         0.492406        -0.250533
 C         3.137385         1.361303        -1.125273
 O         1.724951         1.145656        -0.907177
 C         3.585680        -0.792314         0.360946
 O         2.246587        -1.100843        -0.134651
 H        -0.187578        -0.841077         0.800432
 H        -0.486757         0.667796        -0.145113
 H        -0.105551        -0.896251        -0.837916
 H         1.665654         1.728096         1.281125
 H         1.619392         0.158969         2.190454
 H         4.024406         0.400399         2.101206
 H         5.070645         0.715309        -0.359233
 H         3.318191         2.435046        -0.963413
 H         3.247571         1.281697        -2.274380
 H         4.194519        -1.654557         0.503341
