19
Iteration:  1855charge 0 multiplicity 1
 C        -0.036085        -0.259705        -0.111406
 C         1.427548         0.129390         0.029874
 C         2.148766         0.769317         1.387374
 C         3.571891         0.315074         1.318424
 C         4.030627         0.636455        -0.206019
 C         3.069559         1.464269        -1.089543
 O         1.731749         0.900272        -1.123155
 C         3.595461        -0.737585         0.219179
 O         2.144466        -1.119604        -0.038729
 H        -0.278453        -0.935354         0.788499
 H        -0.688918         0.683150        -0.172268
 H        -0.115400        -0.920091        -0.925965
 H         2.058153         1.836932         1.496134
 H         1.531744         0.128927         2.160551
 H         4.125014         0.398034         2.207801
 H         5.074221         0.915798        -0.431079
 H         2.888296         2.486093        -0.667146
 H         3.433109         1.450800        -2.129214
 H         4.064392        -1.720813         0.235173
