19
Iteration:  1476charge 0 multiplicity 1
 C        -0.045004        -0.244915         0.031211
 C         1.420373         0.158931        -0.004043
 C         2.014702         0.632152         1.310113
 C         3.477469         0.497253         1.204417
 C         4.083063         0.627356        -0.221532
 C         3.124089         1.550798        -1.016478
 O         1.895790         0.822753        -1.150859
 C         3.507769        -0.774603         0.259499
 O         2.190866        -1.159560        -0.072161
 H        -0.303667        -0.774753         0.883799
 H        -0.761612         0.598085         0.063412
 H        -0.470115        -0.885347        -0.719046
 H         1.780285         1.710937         1.686036
 H         1.544795         0.045212         2.133523
 H         4.036999         0.635348         2.106816
 H         5.126692         0.597426        -0.438971
 H         2.674405         2.416316        -0.519808
 H         3.549191         1.870366        -1.963999
 H         4.259559        -1.571581         0.118773
