19
Iteration:  1801charge 0 multiplicity 1
 C        -0.066285        -0.262045        -0.020883
 C         1.402329         0.077977         0.038818
 C         1.960897         0.550230         1.381942
 C         3.470926         0.493356         1.172960
 C         4.044378         0.631078        -0.209369
 C         3.177435         1.152101        -1.255134
 O         1.733744         1.188380        -0.887139
 C         3.597717        -0.760542         0.373985
 O         2.331950        -0.989568        -0.215773
 H        -0.411669        -0.802192         0.920538
 H        -0.721314         0.690470        -0.000459
 H        -0.296166        -0.887747        -0.860998
 H         1.553406         1.498180         1.673474
 H         1.561202        -0.231287         2.098290
 H         4.184815         0.693052         1.950559
 H         5.114548         0.847724        -0.114396
 H         3.288853         2.212924        -1.583792
 H         3.369456         0.567068        -2.118348
 H         4.067327        -1.717849         0.442804
