19
Iteration:  3462charge 0 multiplicity 1
 C         0.015915        -0.117074        -0.029561
 C         1.485198         0.053014        -0.022789
 C         1.937449         0.701392         1.265435
 C         3.466613         0.326347         1.255010
 C         3.998868         0.658876        -0.089999
 C         3.068859         1.486711        -0.905545
 O         1.813740         0.876108        -1.168308
 C         3.578559        -0.816130         0.257057
 O         2.278242        -1.166578        -0.197367
 H        -0.385199        -0.949802         0.585773
 H        -0.352230         0.826656         0.456699
 H        -0.334309        -0.157678        -1.092179
 H         1.774133         1.785467         1.203633
 H         1.393607         0.415359         2.241394
 H         4.113169         0.299561         2.146299
 H         5.041505         0.957029        -0.245551
 H         2.947059         2.445955        -0.119459
 H         3.241990         1.830475        -1.951289
 H         4.281651        -1.713403         0.406568
