19
Iteration:  4172charge 0 multiplicity 1
 C        -0.019256        -0.233296        -0.243532
 C         1.469600         0.004112         0.101133
 C         1.924235         0.609946         1.456890
 C         3.364198         0.460922         1.231090
 C         4.028543         0.706011        -0.055219
 C         3.102733         1.118052        -1.215685
 O         1.772592         1.175526        -0.806229
 C         3.593694        -0.775988         0.354210
 O         2.354102        -1.044689        -0.367143
 H        -0.539432        -0.945623         0.353754
 H        -0.459863         0.748967         0.021288
 H        -0.149398        -0.229066        -1.305031
 H         1.606051         1.615868         1.457543
 H         1.586233         0.077364         2.375460
 H         4.132478         0.574770         1.992295
 H         5.059368         1.016473         0.001116
 H         3.446204         2.161577        -1.672306
 H         3.145135         0.385994        -2.006893
 H         4.388823        -1.547599         0.562390
