19
Iteration:  4833
 C        -0.090107        -0.270212        -0.051962
 C         1.437662         0.129737        -0.054990
 C         2.022316         0.613488         1.372518
 C         3.534338         0.275672         1.337245
 C         4.053924         0.709031        -0.013155
 C         3.122364         1.455079        -1.082728
 O         1.777286         1.012194        -1.056277
 C         3.614585        -0.764813         0.132131
 O         2.177546        -1.092925        -0.186469
 H        -0.228758        -1.128442         0.572755
 H        -0.588107         0.638520         0.229947
 H        -0.381422        -0.519194        -1.112168
 H         1.907209         1.674382         1.477699
 H         1.490422         0.100819         2.227878
 H         4.106305         0.401386         2.256173
 H         5.086181         0.977853        -0.176000
 H         3.056412         2.571886        -0.951041
 H         3.549595         1.159873        -2.023533
 H         4.189183        -1.737083         0.257866
