19
Iteration:  3869
 C        -0.006181        -0.319727        -0.051754
 C         1.508623         0.053868         0.025648
 C         1.987997         0.801475         1.356022
 C         3.457912         0.333605         1.232007
 C         4.019837         0.574824        -0.139071
 C         3.111163         1.523570        -0.908223
 O         1.816046         0.985645        -1.166483
 C         3.487379        -0.773000         0.269835
 O         2.235096        -1.118579        -0.219660
 H        -0.402567        -0.876648         0.901035
 H        -0.529404         0.576706        -0.345505
 H        -0.123079        -0.921640        -0.893849
 H         2.094089         1.839706         1.233356
 H         1.312101         0.635125         2.221320
 H         4.112581         0.056663         2.049860
 H         5.042344         0.619455        -0.205880
 H         3.194206         2.394335        -0.166697
 H         3.405232         1.731243        -1.927590
 H         4.082195        -1.641968         0.437050
