19
Iteration:  3184
 C         0.089594        -0.316680        -0.109679
 C         1.469427         0.139601         0.044814
 C         1.898365         0.556157         1.451706
 C         3.413810         0.386343         1.272073
 C         4.008407         0.662182        -0.137890
 C         3.198797         1.261881        -1.207225
 O         1.740914         1.192027        -0.874172
 C         3.592396        -0.732028         0.261171
 O         2.263820        -1.022833        -0.293043
 H        -0.345090        -0.900839         0.684060
 H        -0.560167         0.614392        -0.242238
 H        -0.194694        -0.994719        -1.037302
 H         1.512502         1.607072         1.891974
 H         1.438864        -0.201567         2.132783
 H         3.962960         0.401273         2.169033
 H         5.174830         0.759300        -0.030119
 H         3.423942         2.221116        -1.522420
 H         3.277884         0.633660        -2.131632
 H         3.993252        -1.696473         0.410212
