19
Iteration:  4911
 C         0.057409        -0.247962        -0.133562
 C         1.477583         0.133138         0.020999
 C         1.982800         0.724890         1.453172
 C         3.499394         0.224733         1.283545
 C         3.958080         0.604207        -0.133517
 C         3.113844         1.478432        -1.047920
 O         1.767032         1.007005        -1.033428
 C         3.543007        -0.747056         0.175940
 O         2.185491        -1.114076        -0.186128
 H         0.015072        -1.089503         0.682445
 H        -0.702550         0.514856         0.088025
 H         0.048724        -0.711185        -1.040583
 H         1.800561         1.744016         1.445578
 H         1.534061         0.214278         2.386319
 H         4.267143         0.218018         2.047011
 H         5.079714         0.971572        -0.044597
 H         3.144093         2.484456        -0.804166
 H         3.540271         1.459612        -2.029104
 H         4.246879        -1.514921        -0.096329
