19
Iteration:  2782
 C        -0.067899        -0.330984        -0.214167
 C         1.493114         0.109288         0.024804
 C         1.936131         0.566736         1.465688
 C         3.423891         0.458501         1.263363
 C         4.040048         0.624680        -0.117090
 C         3.164888         1.160875        -1.282548
 O         1.770358         1.230741        -0.811468
 C         3.604357        -0.757183         0.331137
 O         2.260673        -1.004993        -0.261901
 H        -0.373653        -1.249383         0.448476
 H        -0.660585         0.530482         0.117331
 H        -0.305469        -0.578871        -1.219182
 H         1.870441         1.707294         1.639975
 H         1.512558         0.034152         2.353556
 H         4.157433         0.667796         2.030858
 H         5.123409         0.758247        -0.214945
 H         3.411148         2.178462        -1.395919
 H         3.089660         0.546271        -2.201603
 H         4.350718        -1.552996         0.512838
