19
Iteration:  2984charge 0 multiplicity 1
 C        -0.063730        -0.193555        -0.169639
 C         1.448780         0.058820         0.009259
 C         1.984082         0.535109         1.512206
 C         3.432452         0.387645         1.330234
 C         4.010167         0.691206        -0.114145
 C         3.126975         1.163477        -1.247591
 O         1.755736         1.207065        -0.892241
 C         3.593026        -0.716298         0.271451
 O         2.340586        -1.057702        -0.265936
 H        -0.464132        -0.885924         0.567112
 H        -0.688469         0.688485        -0.152429
 H        -0.325590        -0.682882        -1.062121
 H         1.645909         1.509453         1.762426
 H         1.573461        -0.257017         2.241783
 H         4.192175         0.580420         2.076732
 H         5.020047         1.088918        -0.196764
 H         3.313124         2.170605        -1.627547
 H         3.429186         0.510506        -2.126904
 H         4.191642        -1.594560         0.498324
