19
Iteration:  2085
 C         0.015754        -0.276831        -0.032066
 C         1.453449         0.111483        -0.007447
 C         2.115334         0.813004         1.302865
 C         3.556773         0.306214         1.215953
 C         4.063307         0.621296        -0.177157
 C         3.063836         1.523441        -1.014285
 O         1.726492         0.905229        -1.211379
 C         3.514892        -0.773672         0.260355
 O         2.151975        -1.119215         0.019957
 H        -0.117118        -1.282473         0.427137
 H        -0.585945         0.328903         0.588806
 H        -0.217789        -0.463866        -1.126149
 H         2.092009         1.930007         1.307683
 H         1.580258         0.351863         2.205971
 H         4.084383         0.288210         2.217446
 H         5.113378         0.589466        -0.359948
 H         2.916199         2.491873        -0.438154
 H         3.492768         1.625670        -2.083661
 H         3.989298        -1.712995         0.288244
