19
Iteration:  1948
 C         0.031942        -0.220988        -0.166215
 C         1.470829         0.145752         0.168894
 C         1.945279         0.591521         1.519181
 C         3.467507         0.442701         1.235478
 C         4.037360         0.652768        -0.231756
 C         3.126072         1.204881        -1.273336
 O         1.729620         1.093935        -0.936238
 C         3.549631        -0.752857         0.228004
 O         2.264301        -1.044086        -0.137317
 H        -0.314451        -1.031845         0.422681
 H        -0.715613         0.583384         0.028556
 H        -0.100200        -0.600567        -1.247187
 H         1.705522         1.621426         1.852187
 H         1.771128        -0.078823         2.289015
 H         4.167260         0.432748         2.135177
 H         5.124997         0.754780        -0.362141
 H         3.264743         2.284112        -1.456954
 H         3.215725         0.629409        -2.197271
 H         4.239394        -1.523965         0.502274
