19
Iteration:  4148
 C         0.017037        -0.212155        -0.193430
 C         1.470920         0.111622         0.028885
 C         1.829170         0.475735         1.400183
 C         3.345657         0.434801         1.368037
 C         4.025854         0.655230        -0.138061
 C         3.141160         1.147683        -1.319995
 O         1.828756         1.206715        -0.841828
 C         3.586605        -0.694374         0.307733
 O         2.344909        -1.042278        -0.226769
 H        -0.090781        -1.059765         0.620040
 H        -0.584753         0.593102         0.314601
 H        -0.346109        -0.236572        -1.210742
 H         1.465822         1.476244         1.698579
 H         1.438582        -0.320844         2.132193
 H         4.104759         0.605211         2.132303
 H         5.196454         0.910586        -0.116901
 H         3.360912         2.152745        -1.702289
 H         3.206650         0.401635        -2.161538
 H         4.282630        -1.539956         0.501896
