19
Iteration:   827charge 0 multiplicity 1
 C         0.010758        -0.253737        -0.092891
 C         1.463725         0.131759         0.061424
 C         2.134523         0.782463         1.441832
 C         3.515696         0.308088         1.240811
 C         3.998741         0.677283        -0.180999
 C         3.060035         1.482611        -1.130515
 O         1.751286         0.869175        -1.191304
 C         3.529595        -0.815337         0.297917
 O         2.169888        -1.074002        -0.040089
 H        -0.447900        -0.908002         0.773427
 H        -0.643902         0.589139        -0.230787
 H        -0.127511        -1.006017        -0.950475
 H         2.063312         1.853636         1.397295
 H         1.638342         0.333872         2.307650
 H         4.237126         0.208402         2.068937
 H         5.118257         0.821060        -0.320137
 H         2.970241         2.526630        -0.650716
 H         3.585781         1.493770        -2.084166
 H         4.113161        -1.770571         0.285999
