19
Iteration:  2353charge 0 multiplicity 1
 C         0.090369        -0.293065        -0.111655
 C         1.506668         0.107477         0.048258
 C         2.029934         0.673432         1.461294
 C         3.406463         0.329174         1.322958
 C         4.008200         0.647591        -0.130768
 C         3.060547         1.166415        -1.293692
 O         1.667341         1.181581        -0.914861
 C         3.584795        -0.773321         0.335249
 O         2.274086        -0.983724        -0.254984
 H        -0.273765        -0.866586         0.780226
 H        -0.491967         0.632231        -0.197569
 H         0.046171        -0.761876        -1.019655
 H         1.885633         1.743502         1.377331
 H         1.441832         0.316449         2.351181
 H         4.031414         0.317778         2.260754
 H         5.073020         0.861029        -0.132568
 H         3.190596         2.131992        -1.758382
 H         3.251863         0.387018        -2.165449
 H         4.341593        -1.584651         0.194881
