19
Iteration:  1135
 C         0.090428        -0.252412        -0.059483
 C         1.547328         0.111106         0.063551
 C         1.955792         0.589576         1.512595
 C         3.389786         0.535191         1.288977
 C         3.946739         0.648206        -0.152690
 C         3.181754         1.290267        -1.248161
 O         1.789742         1.064011        -1.020981
 C         3.518068        -0.750123         0.170527
 O         2.163075        -1.084182        -0.149382
 H        -0.145663        -0.929744         0.830746
 H        -0.528227         0.746235        -0.095576
 H         0.034528        -0.883410        -0.944191
 H         1.546644         1.512168         1.798313
 H         1.744868        -0.258643         2.279745
 H         4.023315         0.470458         2.179613
 H         4.998556         0.838748        -0.296446
 H         3.576512         2.294693        -1.406403
 H         3.440726         0.666984        -2.163521
 H         4.304517        -1.562703         0.187898
