19
Iteration:   774
 C         0.002574        -0.208306        -0.020322
 C         1.454601         0.101193         0.011170
 C         1.983391         0.671314         1.428766
 C         3.460177         0.428932         1.299593
 C         4.009347         0.561401        -0.185236
 C         3.115387         1.311933        -1.256695
 O         1.755628         0.989717        -1.013187
 C         3.582183        -0.704858         0.340605
 O         2.274267        -1.074005        -0.189178
 H        -0.279968        -0.961315         0.758480
 H        -0.478342         0.698240         0.236077
 H        -0.418584        -0.551161        -1.003861
 H         1.706802         1.819720         1.360131
 H         1.323592         0.099537         2.159492
 H         4.216207         0.594146         2.061098
 H         5.146634         0.661531        -0.248557
 H         3.287255         2.397542        -1.128417
 H         3.405599         0.959540        -2.218772
 H         4.128022        -1.683678         0.395288
