19
Iteration:  4921
 C         0.081193        -0.285633        -0.069960
 C         1.473678         0.145692         0.032827
 C         2.010918         0.654384         1.424866
 C         3.424348         0.287107         1.270416
 C         3.958948         0.649421        -0.125170
 C         3.154091         1.407721        -1.087758
 O         1.735232         1.086896        -0.979596
 C         3.540943        -0.853136         0.200116
 O         2.246826        -1.044365        -0.243758
 H        -0.245761        -1.108927         0.671736
 H        -0.713543         0.441453        -0.174566
 H        -0.005261        -0.677831        -1.046132
 H         1.888189         1.675044         1.479958
 H         1.441134         0.302739         2.327555
 H         4.110777         0.439588         2.088171
 H         5.067351         0.906765        -0.176198
 H         3.198280         2.410363        -0.818604
 H         3.415322         1.226825        -2.102258
 H         4.205626        -1.735423         0.127290
