19
Iteration:  4375
 C        -0.055375        -0.292841        -0.115241
 C         1.430423         0.104294        -0.042641
 C         1.871266         0.485689         1.494516
 C         3.445876         0.459504         1.339164
 C         4.052598         0.651095        -0.152296
 C         3.200440         1.202357        -1.232759
 O         1.789177         1.202524        -0.907312
 C         3.640525        -0.701147         0.286840
 O         2.276204        -0.997639        -0.277685
 H        -0.361512        -0.942086         0.717586
 H        -0.791400         0.546323         0.075331
 H        -0.320306        -0.753924        -1.081153
 H         1.514450         1.418810         1.928631
 H         1.585864        -0.409777         2.095382
 H         4.011074         0.524771         2.212470
 H         5.147048         0.858680        -0.270752
 H         3.338929         2.261528        -1.523883
 H         3.346618         0.483779        -2.073969
 H         4.264245        -1.533462         0.495817
