19
Iteration:  3293charge 0 multiplicity 1
 C        -0.008381        -0.276845        -0.109872
 C         1.431411         0.072523         0.040613
 C         1.996713         0.738480         1.421931
 C         3.470184         0.323139         1.266945
 C         3.982621         0.603294        -0.147707
 C         3.128667         1.491409        -0.995096
 O         1.810797         0.941773        -1.099597
 C         3.533041        -0.764650         0.207754
 O         2.253123        -1.072430        -0.161491
 H        -0.210744        -1.151867         0.410674
 H        -0.517284         0.544403         0.392294
 H        -0.143285        -0.436209        -1.209694
 H         1.688104         1.823567         1.281256
 H         1.432910         0.244036         2.197440
 H         4.207956         0.307359         2.050408
 H         5.101054         0.678007        -0.022568
 H         3.139911         2.665968        -0.636395
 H         3.516895         1.469339        -2.021878
 H         4.156291        -1.681197         0.066891
