19
Iteration:  3343
 C        -0.014460        -0.206504        -0.126221
 C         1.442148         0.120962         0.015473
 C         1.943200         0.463787         1.521379
 C         3.413387         0.368769         1.352273
 C         3.990259         0.680086        -0.136141
 C         3.179019         1.245667        -1.262644
 O         1.742060         1.147487        -0.956207
 C         3.654686        -0.703623         0.266248
 O         2.273662        -1.030038        -0.263757
 H        -0.391105        -0.724391         0.809874
 H        -0.492953         0.794421        -0.174438
 H        -0.157928        -0.798688        -1.018807
 H         1.490925         1.367654         1.754175
 H         1.534796        -0.307117         2.231783
 H         4.002270         0.548403         2.238001
 H         5.128252         0.875020        -0.142565
 H         3.380715         2.247025        -1.344765
 H         3.519479         0.721304        -2.196585
 H         4.240851        -1.598354         0.344848
