19
Iteration:  3823
 C         0.001408        -0.230546        -0.099529
 C         1.495754         0.069567         0.000200
 C         1.956911         0.608567         1.431611
 C         3.420975         0.331614         1.345425
 C         3.972173         0.643862        -0.127789
 C         3.180195         1.432326        -1.156986
 O         1.849346         1.062806        -1.079323
 C         3.526108        -0.737596         0.224532
 O         2.199968        -1.139063        -0.161937
 H        -0.111793        -0.964471         0.737063
 H        -0.469587         0.752061        -0.022181
 H        -0.306238        -0.647471        -1.030913
 H         1.574403         1.568327         1.577943
 H         1.591781        -0.058466         2.229262
 H         4.052582         0.452837         2.219245
 H         5.061143         1.103955        -0.106928
 H         3.156680         2.523405        -0.793985
 H         3.529020         1.229247        -2.236334
 H         4.296090        -1.530687         0.420146
