19
Iteration:  2126
 C        -0.015417        -0.194489        -0.022559
 C         1.473343         0.038975         0.078777
 C         1.963491         0.699921         1.361702
 C         3.448128         0.451725         1.191547
 C         4.117357         0.586496        -0.189075
 C         3.193177         1.335994        -1.171850
 O         1.688535         0.983984        -0.970093
 C         3.551334        -0.738300         0.286848
 O         2.246163        -1.091360        -0.175318
 H        -0.316893        -1.132126         0.588327
 H        -0.524084         0.710889         0.414805
 H        -0.272396        -0.413308        -1.070556
 H         1.511346         1.648972         1.419423
 H         1.719606         0.087886         2.235589
 H         4.145330         0.365402         2.076864
 H         5.125640         0.966095        -0.367089
 H         3.204606         2.448046        -1.198813
 H         3.263298         1.027150        -2.163615
 H         4.217225        -1.531418         0.514948
