19
Iteration:   498charge 0 multiplicity 1
 C         0.007210        -0.322706        -0.036722
 C         1.464182         0.104220        -0.029327
 C         2.040049         0.761107         1.488466
 C         3.503423         0.400353         1.335432
 C         3.969818         0.592099        -0.009236
 C         3.105044         1.164817        -1.209338
 O         1.644521         1.075416        -1.025037
 C         3.538292        -0.737160         0.265425
 O         2.331658        -0.949435        -0.317599
 H        -0.192311        -0.887541         0.833912
 H        -0.561370         0.626974        -0.067526
 H        -0.067362        -0.988336        -0.905037
 H         1.826463         1.802765         1.291997
 H         1.356391         0.384187         2.400990
 H         4.135840         0.302473         2.194853
 H         5.003998         0.879205        -0.236434
 H         3.466978         2.184770        -1.495653
 H         3.461119         0.342563        -1.987681
 H         4.217565        -1.580774         0.341948
