19
Iteration:  2419charge 0 multiplicity 1
 C         0.042306        -0.188383        -0.125528
 C         1.482579         0.164400         0.010747
 C         1.954245         0.615595         1.467565
 C         3.474950         0.359818         1.275810
 C         3.975790         0.625853        -0.126003
 C         3.097662         1.345624        -1.202267
 O         1.711109         1.065817        -1.028005
 C         3.617920        -0.765169         0.269859
 O         2.267582        -1.135035        -0.123530
 H        -0.505300        -0.207829         0.818711
 H        -0.520084         0.462077        -0.746553
 H         0.017065        -1.139846        -0.615080
 H         1.834891         1.650196         1.771147
 H         1.638039        -0.019970         2.333353
 H         4.096300         0.501887         2.108123
 H         5.003916         0.939412        -0.235274
 H         3.258666         2.397173        -1.261893
 H         3.299187         0.903633        -2.197111
 H         4.277004        -1.645707         0.157052
