19
Iteration:  4636charge 0 multiplicity 1
 C        -0.017803        -0.121851        -0.115901
 C         1.480086        -0.063744         0.012549
 C         1.968092         0.608359         1.343400
 C         3.429830         0.388944         1.217332
 C         4.028455         0.664266        -0.185186
 C         3.106223         1.497310        -0.988696
 O         1.817657         0.935097        -0.982602
 C         3.549131        -0.705980         0.232748
 O         2.240267        -1.185918        -0.176997
 H        -0.301808        -0.775381         0.594810
 H        -0.308057         0.872732         0.173991
 H        -0.356576        -0.212099        -1.183648
 H         1.538952         1.552895         1.542821
 H         1.658078        -0.013069         2.175550
 H         4.175006         0.600518         2.017290
 H         5.100000         0.756571        -0.298851
 H         3.207863         2.536268        -0.620582
 H         3.460783         1.653907        -1.992747
 H         4.176500        -1.554276         0.494576
