19
Iteration:  2661
 C        -0.038281        -0.173194        -0.071368
 C         1.482970         0.125867        -0.013075
 C         2.037835         0.672652         1.302303
 C         3.551575         0.313698         1.226334
 C         3.995185         0.678096        -0.116993
 C         3.053738         1.534818        -0.916742
 O         1.823197         0.889558        -1.142595
 C         3.563400        -0.786875         0.216355
 O         2.200132        -1.170622        -0.091943
 H        -0.478706        -0.464964         0.877312
 H        -0.641630         0.656934        -0.489463
 H        -0.236737        -0.976867        -0.792233
 H         1.980144         1.793857         1.325006
 H         1.464346         0.166513         2.075401
 H         4.083002         0.234163         2.212607
 H         5.066333         0.677808        -0.313731
 H         2.761302         2.499313        -0.382190
 H         3.494603         1.830199        -1.854618
 H         4.186909        -1.683735         0.117117
