19
Iteration:  1860charge 0 multiplicity 1
 C        -0.087110        -0.278118        -0.050934
 C         1.442584         0.141309         0.007726
 C         2.131118         0.793102         1.388585
 C         3.600713         0.305223         1.291231
 C         4.087348         0.588646        -0.182473
 C         3.067685         1.493245        -1.067519
 O         1.722123         0.883467        -1.167752
 C         3.513376        -0.694339         0.255106
 O         2.173713        -1.135461        -0.065807
 H        -0.226684        -0.970771         0.780004
 H        -0.709402         0.565128        -0.140534
 H        -0.172242        -0.888976        -1.029539
 H         2.059230         1.901807         1.563068
 H         1.574389         0.238462         2.059951
 H         4.189586         0.312315         2.261799
 H         5.099692         0.847998        -0.467606
 H         2.885800         2.467267        -0.605570
 H         3.550259         1.584977        -2.051142
 H         4.150354        -1.595823         0.211577
