19
Iteration:  2692
 C         0.020254        -0.303549        -0.006901
 C         1.470555         0.058476         0.025914
 C         1.998899         0.764533         1.312677
 C         3.450097         0.363979         1.253071
 C         3.995759         0.568611        -0.155055
 C         3.122719         1.476315        -0.998159
 O         1.782945         1.028444        -1.054954
 C         3.549842        -0.819385         0.297313
 O         2.240093        -1.112881        -0.251909
 H        -0.332552        -1.021805         0.665713
 H        -0.572662         0.631399         0.065258
 H        -0.174229        -0.643961        -1.061857
 H         1.864977         1.776491         1.056060
 H         1.339223         0.589328         2.125410
 H         4.044339         0.520261         2.182810
 H         5.087804         0.641356        -0.234047
 H         3.154041         2.368516        -0.429787
 H         3.548423         1.507520        -1.980808
 H         4.181177        -1.705524         0.318481
