19
Iteration:  1956charge 0 multiplicity 1
 C        -0.002186        -0.290043        -0.140742
 C         1.473963         0.097063         0.122480
 C         1.990823         0.577075         1.505753
 C         3.453718         0.442235         1.210384
 C         3.989811         0.595311        -0.227831
 C         3.085471         1.231742        -1.313253
 O         1.802564         1.246092        -0.898915
 C         3.581356        -0.711291         0.284607
 O         2.255779        -1.108690        -0.117851
 H        -0.378972        -1.076277         0.544808
 H        -0.550773         0.616122        -0.163605
 H        -0.051968        -0.590325        -1.242244
 H         1.584451         1.628722         1.614783
 H         1.634703        -0.064328         2.339024
 H         4.177303         0.604892         2.037212
 H         5.046898         0.718599        -0.213076
 H         3.389662         2.260986        -1.670398
 H         3.018284         0.630933        -2.209645
 H         4.129631        -1.598431         0.491014
