19
Iteration:  1629charge 0 multiplicity 1
 C         0.001398        -0.366134        -0.035350
 C         1.413249         0.113603         0.063218
 C         1.960974         0.649045         1.421695
 C         3.547316         0.446020         1.249652
 C         4.042454         0.608902        -0.137487
 C         3.185974         1.362992        -1.229306
 O         1.739633         1.125060        -1.057069
 C         3.552987        -0.740516         0.301531
 O         2.196568        -1.112616        -0.138345
 H        -0.333373        -0.998945         0.782297
 H        -0.686045         0.499280        -0.161119
 H        -0.157524        -0.776583        -0.975411
 H         1.779577         1.765610         1.581120
 H         1.451074         0.083793         2.191369
 H         4.366488         0.463841         2.034731
 H         5.141374         0.719313        -0.367636
 H         3.323644         2.428696        -1.159717
 H         3.348884         1.000014        -2.296056
 H         4.138208        -1.641368         0.439542
