19
Iteration:  2635
 C        -0.022113        -0.172024        -0.082970
 C         1.504796         0.099123         0.024808
 C         1.967063         0.531471         1.551562
 C         3.477765         0.407190         1.264267
 C         3.994819         0.656889        -0.207609
 C         3.157507         1.495150        -1.104698
 O         1.842219         0.902271        -1.120694
 C         3.504257        -0.682365         0.193263
 O         2.234353        -1.149815        -0.131621
 H        -0.559549        -0.246941         0.871602
 H        -0.407906         0.772331        -0.500710
 H        -0.434861        -0.953195        -0.810729
 H         1.692209         1.508176         1.909762
 H         1.548089        -0.271063         2.177286
 H         4.078470         0.234915         2.144696
 H         5.099257         0.706618        -0.139942
 H         3.041635         2.574138        -0.842871
 H         3.440314         1.823883        -2.150900
 H         4.079470        -1.594641         0.258478
