19
Iteration:  2951
 C         0.043137        -0.340553        -0.117069
 C         1.479329         0.149972         0.033529
 C         1.948096         0.568990         1.454884
 C         3.385808         0.361128         1.301544
 C         4.014484         0.664751        -0.142807
 C         3.159456         1.139298        -1.245321
 O         1.782321         1.235227        -0.902947
 C         3.544474        -0.730434         0.275783
 O         2.289626        -0.950496        -0.255175
 H         0.043882        -1.229818         0.486045
 H        -0.580366         0.436060         0.390846
 H        -0.222994        -0.529464        -1.130408
 H         1.485978         1.513069         1.653949
 H         1.368488        -0.143172         2.114419
 H         3.982419         0.503665         2.192805
 H         5.055281         0.884772        -0.106510
 H         3.425024         2.190255        -1.563034
 H         3.282700         0.449656        -2.108828
 H         3.921062        -1.746239         0.422633
