19
Iteration:  1300charge 0 multiplicity 1
 C         0.050884        -0.296614        -0.027331
 C         1.449538         0.159322         0.083074
 C         2.043039         0.651061         1.398032
 C         3.491622         0.386269         1.265446
 C         3.989115         0.633583        -0.152079
 C         3.188240         1.452215        -1.106704
 O         1.765510         0.944434        -1.189625
 C         3.495649        -0.708093         0.220655
 O         2.151810        -1.071958        -0.085413
 H        -0.142928        -0.987384         0.846596
 H        -0.790965         0.322533         0.009302
 H        -0.026206        -0.966050        -0.939004
 H         1.760469         1.691917         1.551637
 H         1.538689        -0.192789         2.006143
 H         4.144519         0.389779         2.159336
 H         5.120469         0.705266        -0.160992
 H         3.428484         2.588343        -0.812110
 H         3.439896         1.354546        -2.149953
 H         4.155088        -1.569608         0.260324
