19
Iteration:   741charge 0 multiplicity 1
 C        -0.037803        -0.313936        -0.008564
 C         1.477049         0.151840        -0.007212
 C         2.003566         0.677585         1.429688
 C         3.451356         0.347948         1.314150
 C         4.073826         0.714783        -0.105040
 C         3.166178         1.142032        -1.297816
 O         1.728204         1.108925        -1.002407
 C         3.582222        -0.704374         0.286375
 O         2.215497        -1.037522        -0.192546
 H        -0.029939        -1.180702         0.713030
 H        -0.570067         0.481089         0.397413
 H        -0.385570        -0.513595        -1.040751
 H         1.842359         1.868885         1.491979
 H         1.180745         0.327734         2.128149
 H         4.169806         0.402928         2.131386
 H         5.159705         1.012427        -0.026152
 H         3.207305         2.095066        -1.827453
 H         3.393705         0.445564        -2.082847
 H         4.141696        -1.640092         0.443621
