19
Iteration:  2637charge 0 multiplicity 1
 C        -0.016336        -0.178858        -0.074994
 C         1.483940         0.100275         0.018878
 C         1.988906         0.537893         1.552932
 C         3.482274         0.399158         1.270548
 C         3.997486         0.655466        -0.208147
 C         3.149717         1.513722        -1.093706
 O         1.852579         0.888576        -1.134865
 C         3.489949        -0.681168         0.187788
 O         2.220888        -1.151723        -0.128746
 H        -0.516398        -0.244190         0.828768
 H        -0.366435         0.776627        -0.520372
 H        -0.433176        -0.955565        -0.816008
 H         1.643712         1.499093         1.867406
 H         1.582198        -0.262854         2.157041
 H         4.114603         0.300837         2.190200
 H         5.111454         0.762186        -0.126046
 H         3.084879         2.593988        -0.743628
 H         3.428730         1.779792        -2.156642
 H         4.074073        -1.579750         0.240379
