19
Iteration:  3120
 C         0.002612        -0.234013        -0.162531
 C         1.520232         0.150047         0.078734
 C         1.959994         0.502481         1.474439
 C         3.487676         0.362330         1.347791
 C         3.940298         0.671089        -0.094771
 C         3.144058         1.377286        -1.244966
 O         1.770148         1.041521        -1.007637
 C         3.564228        -0.726744         0.271821
 O         2.207750        -1.072928        -0.202516
 H        -0.135108        -1.123150         0.448607
 H        -0.607427         0.674898         0.167877
 H        -0.071402        -0.274790        -1.340233
 H         1.730158         1.618651         1.752299
 H         1.486116        -0.256594         2.103155
 H         4.212661         0.554097         2.114899
 H         5.008512         0.800519        -0.115400
 H         3.181247         2.476300        -1.323540
 H         3.584050         0.883999        -2.185153
 H         4.337517        -1.454605         0.244842
