19
Iteration:  3866charge 0 multiplicity 1
 C        -0.009746        -0.336645        -0.042164
 C         1.498929         0.075596         0.011886
 C         2.004024         0.810437         1.341641
 C         3.445507         0.344337         1.241088
 C         4.012921         0.560269        -0.139747
 C         3.086759         1.490956        -0.884508
 O         1.821390         0.985413        -1.146623
 C         3.508465        -0.762292         0.260614
 O         2.237438        -1.120454        -0.233214
 H        -0.444693        -0.810212         0.886813
 H        -0.602339         0.553845        -0.321127
 H        -0.157492        -0.908949        -0.946398
 H         2.109923         1.871423         1.216945
 H         1.309184         0.708571         2.175881
 H         4.132639         0.115502         2.034320
 H         5.263183         0.672249        -0.159151
 H         3.142814         2.327022        -0.197050
 H         3.509186         1.797687        -1.931791
 H         4.040085        -1.738244         0.392794
