19
Iteration:  2978
 C        -0.066339        -0.230473        -0.173479
 C         1.403689         0.158488         0.078600
 C         1.996830         0.501947         1.535308
 C         3.461879         0.427487         1.344674
 C         4.020173         0.741309        -0.116760
 C         3.157312         1.104242        -1.253934
 O         1.757908         1.199216        -0.914044
 C         3.611826        -0.710847         0.264601
 O         2.304299        -1.068649        -0.310242
 H        -0.320919        -1.004544         0.611557
 H        -0.673835         0.685417        -0.051058
 H        -0.306910        -0.710577        -1.177871
 H         1.445813         1.464060         1.770043
 H         1.519182        -0.220025         2.153182
 H         4.075487         0.443815         2.273472
 H         5.095985         1.027043        -0.117413
 H         3.444709         2.082387        -1.702831
 H         3.351065         0.527907        -2.167939
 H         4.159377        -1.652594         0.399363
