19
Iteration:  4228
 C         0.029878        -0.311582        -0.068097
 C         1.491735         0.116124        -0.019425
 C         1.942632         0.652333         1.339900
 C         3.410983         0.403720         1.248099
 C         4.055515         0.616089        -0.134392
 C         3.198188         1.509424        -1.038174
 O         1.837879         1.000770        -1.045990
 C         3.495445        -0.788519         0.298520
 O         2.174849        -1.115384        -0.196886
 H        -0.224862        -0.802290         0.795089
 H        -0.639423         0.507119        -0.207629
 H        -0.146267        -1.077879        -0.813881
 H         1.679260         1.695648         1.386054
 H         1.520290         0.162611         2.197612
 H         4.135147         0.329248         2.052644
 H         5.055129         0.705966        -0.222971
 H         3.157083         2.582435        -0.649114
 H         3.404988         1.607881        -2.069911
 H         4.169208        -1.623986         0.444255
