19
Iteration:   144
 C         0.063089        -0.257476         0.055019
 C         1.436532         0.086613         0.034999
 C         2.018820         0.788259         1.179756
 C         3.406896         0.309319         1.288943
 C         4.104004         0.578173        -0.078571
 C         3.061244         1.345393        -1.040022
 O         1.673424         0.981129        -1.084348
 C         3.598571        -0.771925         0.258033
 O         2.297397        -1.023822        -0.188903
 H        -0.230153        -0.879881         0.882232
 H        -0.504137         0.608886         0.032144
 H        -0.130180        -0.799238        -0.831409
 H         1.795908         1.843139         0.936747
 H         1.390411         0.442269         2.089463
 H         3.929390         0.281144         2.279130
 H         5.155441         0.901356        -0.336374
 H         3.059976         2.400572        -0.800662
 H         3.366171         1.265371        -2.120434
 H         4.171007        -1.697720         0.408756
