19
Iteration:  1573
 C        -0.027360        -0.289736        -0.120457
 C         1.426536         0.117115         0.038803
 C         1.914635         0.514855         1.403524
 C         3.459954         0.556235         1.211417
 C         4.003649         0.621690        -0.158437
 C         3.085541         1.140174        -1.313483
 O         1.771545         1.282156        -0.878392
 C         3.636807        -0.728712         0.328013
 O         2.348788        -1.117767        -0.163248
 H        -0.301996        -1.030677         0.570771
 H        -0.501459         0.665430         0.268933
 H        -0.565699        -0.522312        -1.005591
 H         1.618033         1.526785         1.691957
 H         1.716264        -0.145179         2.262849
 H         4.059248         0.537795         2.144836
 H         5.067352         0.845208        -0.118715
 H         3.463064         2.106170        -1.632677
 H         3.056339         0.425036        -2.240530
 H         4.276255        -1.580952         0.600722
