19
Iteration:  2727
 C        -0.042870        -0.298700        -0.080465
 C         1.446700         0.140319         0.080112
 C         1.880845         0.506210         1.490369
 C         3.442193         0.389848         1.296974
 C         4.026353         0.693891        -0.101233
 C         3.223102         1.272012        -1.282313
 O         1.808938         1.146315        -1.078130
 C         3.559863        -0.725777         0.275144
 O         2.246011        -1.042183        -0.148526
 H        -0.304643        -1.358349         0.238943
 H        -0.645255         0.471764         0.416652
 H        -0.237287        -0.109174        -1.096954
 H         1.770475         1.591492         1.736321
 H         1.511932        -0.266413         2.238540
 H         4.140843         0.435731         2.157679
 H         5.090338         0.871662        -0.239549
 H         3.433200         2.275686        -1.426508
 H         3.414261         0.858929        -2.283460
 H         4.317371        -1.537854         0.291487
