19
Iteration:  3847
 C        -0.044168        -0.277579        -0.074794
 C         1.450283         0.118164        -0.013316
 C         1.985770         0.780835         1.228692
 C         3.494642         0.287693         1.286063
 C         4.054999         0.595764        -0.070477
 C         3.179553         1.508221        -0.911763
 O         1.736172         0.956244        -1.100122
 C         3.531713        -0.825652         0.253150
 O         2.241037        -1.082539        -0.213864
 H         0.012610        -0.918463         0.910666
 H        -0.717244         0.555101        -0.217074
 H        -0.183017        -0.984315        -0.820649
 H         1.843322         1.851759         1.189314
 H         1.543330         0.380450         2.167943
 H         3.967714         0.497995         2.244659
 H         5.072293         0.649439        -0.275708
 H         3.219979         2.510117        -0.298264
 H         3.300456         1.457036        -1.978841
 H         4.276299        -1.606100         0.271309
