19
Iteration:  1341
 C        -0.091805        -0.175539        -0.088316
 C         1.419268         0.000686         0.059139
 C         2.006398         0.606000         1.259575
 C         3.509035         0.467179         1.262421
 C         4.075004         0.693570        -0.073203
 C         3.101016         1.189861        -1.178255
 O         1.653634         1.150276        -0.900120
 C         3.628259        -0.744440         0.298976
 O         2.313316        -1.138541        -0.221203
 H        -0.525207        -0.849475         0.680655
 H        -0.577089         0.763893        -0.170205
 H        -0.069172        -0.712528        -1.025495
 H         1.723577         1.619507         1.302575
 H         1.906292         0.146757         2.319237
 H         4.023865         0.633478         2.232894
 H         5.126667         0.787051        -0.429487
 H         3.093383         2.247683        -1.183727
 H         3.489494         0.861781        -2.153213
 H         4.373714        -1.507175         0.435325
