19
Iteration:   533
 C         0.027964        -0.284021         0.032257
 C         1.469448         0.062464        -0.009064
 C         1.942072         0.608717         1.364950
 C         3.387231         0.546388         1.196753
 C         3.945296         0.644121        -0.160299
 C         3.237041         1.286747        -1.252448
 O         1.813757         1.124593        -0.963433
 C         3.536921        -0.792418         0.299729
 O         2.265977        -1.086479        -0.152143
 H        -0.106170        -1.138826         0.719027
 H        -0.674724         0.473593         0.353013
 H        -0.410261        -0.596005        -0.893459
 H         1.604230         1.693113         1.474488
 H         1.563173         0.045147         2.279150
 H         4.148996         0.451169         1.965287
 H         4.977947         0.830350        -0.071174
 H         3.391648         2.344040        -1.479324
 H         3.324852         0.728270        -2.285336
 H         4.161502        -1.671870         0.671441
