19
Iteration:  2466charge 0 multiplicity 1
 C         0.034942        -0.330950         0.016225
 C         1.503762         0.164376         0.005061
 C         1.998026         0.810872         1.265047
 C         3.408713         0.360635         1.204313
 C         4.002551         0.513316        -0.169743
 C         3.170590         1.512601        -0.958899
 O         1.846034         0.954505        -1.108562
 C         3.488663        -0.785913         0.243224
 O         2.167368        -1.162544        -0.144041
 H        -0.073584        -0.796117         0.922895
 H        -0.768394         0.407089         0.032944
 H        -0.131894        -1.048519        -0.829270
 H         1.750076         1.902133         1.218183
 H         1.468721         0.386423         2.105582
 H         4.197996         0.563679         1.967465
 H         5.070919         0.808548        -0.309050
 H         3.009324         2.358391        -0.251998
 H         3.574795         1.995098        -1.954499
 H         4.206003        -1.571217         0.416928
