19
Iteration:  2564charge 0 multiplicity 1
 C         0.068229        -0.407988        -0.103632
 C         1.401456         0.201920         0.000456
 C         1.942505         0.619400         1.492671
 C         3.425658         0.399586         1.218084
 C         4.034018         0.577177        -0.064266
 C         3.217847         1.138462        -1.343481
 O         1.760512         1.255876        -0.865951
 C         3.569098        -0.754183         0.290281
 O         2.189803        -0.920607        -0.216080
 H         0.259271        -1.383028         0.240360
 H        -0.771948         0.053462         0.447670
 H        -0.208804        -0.501435        -1.159720
 H         1.568389         1.634973         1.847986
 H         1.542873        -0.203848         2.116412
 H         4.170654         0.516159         2.085279
 H         5.144790         0.773059        -0.099415
 H         3.549059         2.116726        -1.534971
 H         3.326215         0.673470        -2.282584
 H         4.110419        -1.690914         0.322319
