19
Iteration:  1816charge 0 multiplicity 1
 C        -0.100667        -0.222308        -0.085480
 C         1.491878         0.056975         0.043913
 C         1.949691         0.579704         1.416999
 C         3.476724         0.517402         1.267816
 C         4.093462         0.578696        -0.230415
 C         3.080703         1.294426        -1.301333
 O         1.773921         1.107845        -0.872631
 C         3.625622        -0.706872         0.312635
 O         2.240697        -1.147609        -0.181209
 H        -0.372870        -0.635729         0.921512
 H        -0.572792         0.691385        -0.309435
 H        -0.420121        -0.826915        -0.977381
 H         1.521979         1.598011         1.623166
 H         1.829054         0.040171         2.293284
 H         4.085194         0.607426         2.174249
 H         5.137090         0.765722        -0.467717
 H         3.470666         2.305150        -1.217998
 H         3.122191         1.005078        -2.399059
 H         4.363148        -1.465240         0.681426
