19
Iteration:  4805
 C         0.076628        -0.351987        -0.080961
 C         1.464028         0.116704         0.076455
 C         1.918810         0.574875         1.417946
 C         3.442650         0.400355         1.289946
 C         4.029236         0.561418        -0.174823
 C         3.160801         1.384697        -1.196197
 O         1.780386         1.184318        -0.898401
 C         3.534262        -0.787455         0.270636
 O         2.212871        -1.038004        -0.307213
 H        -0.198387        -1.195824         0.672640
 H        -0.526098         0.582425        -0.090690
 H         0.000222        -0.688164        -1.080023
 H         1.633068         1.650565         1.577347
 H         1.476154         0.075741         2.305990
 H         4.072978         0.541570         2.162399
 H         5.188589         0.768774        -0.209728
 H         3.307731         2.455648        -1.032885
 H         3.368277         0.991739        -2.230530
 H         4.072767        -1.674843         0.525315
