19
Iteration:   236charge 0 multiplicity 1
 C         0.052593        -0.265124        -0.103662
 C         1.513806         0.101410         0.053556
 C         1.978568         0.734678         1.293633
 C         3.478202         0.382399         1.328443
 C         4.072082         0.643417        -0.119535
 C         3.097394         1.223575        -1.116787
 O         1.626405         1.037598        -0.992942
 C         3.562976        -0.751274         0.254512
 O         2.273950        -1.055507        -0.151538
 H        -0.438990        -1.106188         0.486448
 H        -0.582085         0.753082         0.106764
 H        -0.130936        -0.540633        -1.262719
 H         1.803405         1.783991         1.309472
 H         1.644848         0.180027         2.228491
 H         4.005076         0.607698         2.290762
 H         5.135864         0.824248        -0.257117
 H         3.308886         2.370244        -1.194896
 H         3.340551         0.867329        -2.092867
 H         4.243733        -1.656795         0.168114
