19
Iteration:  3203charge 0 multiplicity 1
 C        -0.032088        -0.201758        -0.137660
 C         1.487439         0.146458         0.055207
 C         1.965886         0.475049         1.438207
 C         3.470071         0.302288         1.314441
 C         3.955525         0.696445        -0.070203
 C         3.103567         1.265929        -1.203648
 O         1.780837         1.149263        -1.053110
 C         3.576287        -0.682188         0.244144
 O         2.276069        -1.072348        -0.176699
 H        -0.402913        -0.807021         0.672885
 H        -0.711510         0.595353        -0.179132
 H        -0.127485        -0.827841        -0.951053
 H         1.657767         1.439178         1.685633
 H         1.650282        -0.203695         2.227907
 H         4.218445         0.452551         2.117822
 H         5.098359         0.843687         0.100262
 H         3.223528         2.379098        -1.208386
 H         3.582476         0.900075        -2.109093
 H         4.384398        -1.396856         0.180355
