19
Iteration:  3933charge 0 multiplicity 1
 C         0.027160        -0.137026        -0.168734
 C         1.434052         0.053005         0.000801
 C         1.927601         0.565761         1.409604
 C         3.428973         0.404993         1.328601
 C         3.973969         0.632036        -0.091351
 C         3.122489         1.234489        -1.225417
 O         1.765091         1.093603        -0.849574
 C         3.582698        -0.751477         0.336916
 O         2.339338        -1.061564        -0.309911
 H        -0.358071        -1.051202         0.469509
 H        -0.539093         0.726054         0.161610
 H        -0.135020        -0.246890        -1.177569
 H         1.532738         1.531211         1.511593
 H         1.498144        -0.037211         2.253937
 H         4.148039         0.576260         2.126338
 H         5.124853         0.965061        -0.174142
 H         3.237218         2.304338        -1.305969
 H         3.292542         0.760067        -2.297502
 H         4.372108        -1.435566         0.449726
