19
Iteration:  4811
 C         0.028500        -0.344822        -0.079955
 C         1.406682         0.118056         0.095751
 C         1.952042         0.608825         1.440311
 C         3.446885         0.367319         1.252230
 C         4.037260         0.577001        -0.151015
 C         3.191422         1.381045        -1.161522
 O         1.766420         1.155868        -0.946215
 C         3.520069        -0.736836         0.250126
 O         2.243536        -1.047065        -0.275414
 H        -0.147770        -1.108042         0.617572
 H        -0.578769         0.535701         0.074862
 H        -0.056617        -0.768344        -1.137018
 H         1.716369         1.641015         1.524260
 H         1.379685        -0.048921         2.139544
 H         4.065280         0.341911         2.156469
 H         5.084922         0.708938        -0.163200
 H         3.427894         2.502830        -1.049695
 H         3.494193         1.038421        -2.141738
 H         4.264063        -1.598208         0.321505
