19
Iteration:  4275
 C         0.066596        -0.084347        -0.077617
 C         1.531787         0.041220         0.013621
 C         2.004276         0.653668         1.351719
 C         3.459974         0.273701         1.328212
 C         3.967188         0.735553        -0.126341
 C         3.013255         1.563450        -0.972634
 O         1.828869         0.822850        -1.178367
 C         3.508256        -0.779333         0.245229
 O         2.247084        -1.179509        -0.153247
 H        -0.420162        -0.830783         0.640201
 H        -0.366182         0.909063         0.017683
 H        -0.154784        -0.558122        -1.036087
 H         1.686628         1.749736         1.445477
 H         1.530574         0.099531         2.159939
 H         4.016499         0.401563         2.287006
 H         5.127894         0.956717        -0.380974
 H         2.970744         2.702360        -0.641921
 H         3.339504         1.631854        -2.052437
 H         4.246649        -1.591682         0.264103
