19
Iteration:   832
 C         0.037027        -0.271625        -0.045236
 C         1.475832         0.172442         0.091457
 C         2.084560         0.768370         1.423377
 C         3.494022         0.307930         1.225268
 C         4.007270         0.693783        -0.177008
 C         3.048305         1.456205        -1.071759
 O         1.760049         0.855454        -1.232142
 C         3.529798        -0.800839         0.330254
 O         2.162479        -1.094162        -0.093500
 H        -0.426728        -0.807090         0.680485
 H        -0.666382         0.575705        -0.258685
 H        -0.029728        -0.886414        -0.897086
 H         2.221607         2.003708         1.456986
 H         1.706771         0.448298         2.442933
 H         4.338052         0.086309         1.876357
 H         5.051751         0.750943        -0.258253
 H         3.106845         2.506320        -0.752225
 H         3.446786         1.490927        -2.109994
 H         4.168491        -1.645513         0.258880
