19
Iteration:   311charge 0 multiplicity 1
 C        -0.024552        -0.238471        -0.156779
 C         1.492218         0.062082         0.104179
 C         1.949559         0.693004         1.427167
 C         3.505503         0.419867         1.281359
 C         3.951966         0.625837        -0.152265
 C         3.114797         1.286444        -1.207101
 O         1.712735         1.059832        -0.978822
 C         3.659094        -0.761730         0.321268
 O         2.252199        -1.115380        -0.178999
 H        -0.756732        -0.770223         0.454177
 H        -0.467851         0.786325        -0.188795
 H        -0.105303        -0.721926        -1.165302
 H         1.821777         1.729529         1.489610
 H         1.771777         0.240272         2.498938
 H         4.206143         0.813324         2.040665
 H         5.016528         0.774585        -0.049458
 H         3.349176         2.348776        -1.344912
 H         3.351503         0.874806        -2.276959
 H         4.393705        -1.608914         0.206563
