19
Iteration:  4379charge 0 multiplicity 1
 C        -0.034577        -0.268930        -0.106866
 C         1.430022         0.084422        -0.016445
 C         1.848909         0.481883         1.472223
 C         3.462636         0.480896         1.278649
 C         4.048130         0.654745        -0.114201
 C         3.185719         1.222048        -1.231459
 O         1.796810         1.174938        -0.901525
 C         3.647083        -0.712995         0.307047
 O         2.260669        -1.009291        -0.284849
 H        -0.330998        -0.907323         0.705150
 H        -0.675085         0.641038        -0.041543
 H        -0.332768        -0.739490        -1.087211
 H         1.467415         1.350888         1.997437
 H         1.576995        -0.451800         2.051919
 H         4.077990         0.624447         2.234221
 H         5.055821         0.775191        -0.257278
 H         3.416054         2.318520        -1.508279
 H         3.234749         0.637660        -2.137557
 H         4.344402        -1.566288         0.505029
