19
Iteration:  2061charge 0 multiplicity 1
 C        -0.065891        -0.143515         0.001127
 C         1.452987         0.023155         0.025557
 C         1.977843         0.796589         1.300142
 C         3.501200         0.475551         1.169077
 C         3.991436         0.513561        -0.288902
 C         3.128906         1.488794        -0.952633
 O         1.814284         0.840366        -1.043944
 C         3.557550        -0.751020         0.282377
 O         2.278706        -1.175109        -0.159770
 H        -0.363993        -1.017491         0.698251
 H        -0.558869         0.716444         0.515533
 H        -0.324783        -0.470924        -0.972983
 H         1.626174         1.794717         1.211831
 H         1.551848         0.307758         2.192778
 H         4.166578         0.716931         2.009118
 H         5.067702         0.686506        -0.321694
 H         3.164877         2.488479        -0.370045
 H         3.370709         1.594355        -1.972529
 H         4.093677        -1.684917         0.368919
