19
Iteration:   420charge 0 multiplicity 1
 C        -0.004417        -0.186200        -0.093132
 C         1.445832         0.086811         0.022756
 C         1.988276         0.753448         1.363364
 C         3.480468         0.348965         1.259591
 C         4.031315         0.639040        -0.132772
 C         3.065617         1.353631        -1.099180
 O         1.747013         0.894174        -1.079913
 C         3.569565        -0.746706         0.235560
 O         2.293264        -1.092810        -0.066641
 H        -0.139050        -0.869088         0.709040
 H        -0.578169         0.715681         0.006958
 H        -0.194533        -0.534834        -1.119739
 H         1.862305         1.819741         1.457549
 H         1.397552         0.165891         2.200499
 H         4.023674         0.375386         2.198247
 H         5.028996         0.929951        -0.480637
 H         3.134530         2.439603        -0.807014
 H         3.475959         1.346222        -2.216402
 H         4.230598        -1.580592         0.271710
