19
Iteration:  4418charge 0 multiplicity 1
 C        -0.052966        -0.219064        -0.216741
 C         1.447895         0.062365         0.070316
 C         1.954655         0.653930         1.398849
 C         3.506489         0.288638         1.305710
 C         4.009385         0.719762        -0.113782
 C         3.089668         1.429111        -1.114314
 O         1.733149         1.043799        -0.989163
 C         3.635281        -0.760350         0.247660
 O         2.288213        -1.157969        -0.152496
 H        -0.521107        -0.559678         0.704669
 H        -0.541468         0.804686        -0.214324
 H        -0.199503        -0.852222        -1.108640
 H         1.671279         1.712532         1.416980
 H         1.547832         0.065835         2.231041
 H         4.230397         0.360143         2.033473
 H         5.165610         0.722525        -0.262175
 H         3.152433         2.467183        -0.843914
 H         3.532069         1.172946        -2.124407
 H         4.340733        -1.537880         0.053472
