19
Iteration:  4642charge 0 multiplicity 1
 C        -0.011558        -0.116278        -0.133937
 C         1.486379        -0.014624        -0.025192
 C         1.990156         0.607866         1.351866
 C         3.476229         0.407605         1.216903
 C         4.048176         0.639179        -0.149976
 C         3.123564         1.535663        -0.964868
 O         1.764541         0.927861        -1.017991
 C         3.537024        -0.758316         0.212247
 O         2.255093        -1.205702        -0.138097
 H        -0.493036        -1.008747         0.535368
 H        -0.416048         0.891355         0.187687
 H        -0.452028        -0.253489        -1.110441
 H         1.702337         1.750459         1.561250
 H         1.577496         0.026490         2.219140
 H         4.030242         0.708921         2.080005
 H         5.185457         0.812462        -0.404189
 H         2.858339         2.521710        -0.449869
 H         3.541296         1.638593        -2.016509
 H         4.161868        -1.643447         0.354688
