19
Iteration:  2042
 C        -0.013945        -0.121978         0.014408
 C         1.467780         0.049728         0.027573
 C         2.005548         0.625354         1.330835
 C         3.457058         0.402542         1.250884
 C         4.029148         0.696745        -0.165483
 C         3.095811         1.419182        -1.180913
 O         1.745997         0.956293        -1.050727
 C         3.592580        -0.780495         0.279458
 O         2.246622        -1.193265        -0.130587
 H        -0.449003        -0.642871         0.885588
 H        -0.357064         0.880267         0.115612
 H        -0.437326        -0.515235        -0.958504
 H         1.637509         1.704645         1.261120
 H         1.584495         0.089503         2.258766
 H         4.133874         0.404145         2.153729
 H         5.082940         0.820986        -0.267663
 H         3.274995         2.451882        -0.840085
 H         3.500226         1.232561        -2.259813
 H         4.344659        -1.510931         0.416364
