19
Iteration:  2690
 C         0.020118        -0.282705        -0.009314
 C         1.479564         0.034113         0.035720
 C         1.996263         0.785745         1.310595
 C         3.436697         0.339288         1.266246
 C         3.995177         0.572076        -0.179779
 C         3.130443         1.487625        -0.982861
 O         1.767805         1.024666        -1.065028
 C         3.573395        -0.809380         0.299840
 O         2.236200        -1.123500        -0.252449
 H        -0.319811        -0.998215         0.690940
 H        -0.613175         0.624974         0.009886
 H        -0.197398        -0.682839        -1.077438
 H         1.926590         1.789905         0.986210
 H         1.356783         0.581865         2.174344
 H         4.053808         0.517496         2.151420
 H         5.098162         0.615030        -0.241387
 H         3.085116         2.433162        -0.325686
 H         3.593969         1.492540        -1.976439
 H         4.178214        -1.693691         0.345806
