19
Iteration:  3067charge 0 multiplicity 1
 C         0.012363        -0.233319        -0.054763
 C         1.528685         0.091007        -0.022514
 C         2.019457         0.779734         1.286200
 C         3.433176         0.341826         1.250214
 C         3.968456         0.598500        -0.109765
 C         3.098623         1.513462        -0.898314
 O         1.796872         0.916854        -1.126491
 C         3.483988        -0.818780         0.233912
 O         2.262441        -1.176431        -0.184722
 H         0.001823        -0.965150         0.736010
 H        -0.413172         0.733077         0.321667
 H        -0.441041        -0.729244        -0.999756
 H         1.940580         1.918904         1.296160
 H         1.485713         0.496753         2.165448
 H         4.012276         0.320431         2.140785
 H         4.934533         0.881321        -0.327574
 H         2.839361         2.528266        -0.419420
 H         3.677876         1.840743        -1.764641
 H         4.281979        -1.529125         0.150618
