19
Iteration:  4302
 C        -0.085149        -0.242978        -0.122666
 C         1.424967         0.070195         0.011464
 C         1.943835         0.549964         1.401907
 C         3.474149         0.417345         1.255311
 C         4.076531         0.658703        -0.169531
 C         3.195614         1.478716        -1.068285
 O         1.844787         1.010187        -1.100067
 C         3.546480        -0.750588         0.229907
 O         2.219901        -1.115765        -0.081276
 H        -0.276596        -1.109003         0.482093
 H        -0.695914         0.575993         0.357094
 H        -0.440451        -0.529226        -1.147561
 H         1.560258         1.495315         1.681457
 H         1.656427        -0.216845         2.186024
 H         4.080914         0.631866         2.122796
 H         5.039855         0.946866        -0.120495
 H         3.388172         2.550422        -0.738652
 H         3.369963         1.418935        -2.154055
 H         4.174482        -1.627590         0.319166
