19
Iteration:  3651
 C         0.015769        -0.243457        -0.102899
 C         1.485134         0.156722        -0.042798
 C         2.040868         0.708153         1.325762
 C         3.425470         0.314625         1.273294
 C         3.978112         0.593240        -0.125540
 C         3.102697         1.568107        -0.936089
 O         1.850337         0.863621        -1.163765
 C         3.544524        -0.764402         0.246345
 O         2.202544        -1.131437        -0.104915
 H        -0.372597        -0.935072         0.753705
 H        -0.508673         0.712087         0.142406
 H        -0.193453        -0.463897        -1.153778
 H         1.696991         1.790644         1.423375
 H         1.541738         0.214231         2.239035
 H         4.124851         0.260031         2.068496
 H         5.066166         0.600797        -0.236588
 H         3.028745         2.390471        -0.313282
 H         3.268509         1.965152        -1.949538
 H         4.199871        -1.629307         0.209134
