19
Iteration:  4882
 C        -0.116906        -0.151085        -0.060733
 C         1.454179         0.034913        -0.018121
 C         2.007986         0.606657         1.276687
 C         3.544687         0.351692         1.185622
 C         4.059306         0.636793        -0.174513
 C         3.108505         1.569191        -0.889293
 O         1.798222         0.919433        -1.106112
 C         3.560131        -0.775088         0.285651
 O         2.207257        -1.163819        -0.131035
 H        -0.331813        -1.081199         0.478625
 H        -0.582630         0.786382         0.321649
 H        -0.267426        -0.415689        -1.139645
 H         1.691715         1.714261         1.313067
 H         1.783085        -0.020876         2.150974
 H         4.179997         0.461563         2.087280
 H         5.175299         0.901676        -0.167133
 H         2.929708         2.533253        -0.210496
 H         3.507987         1.948413        -1.890074
 H         4.216994        -1.580612         0.128737
