19
Iteration:  1823
 C        -0.005419        -0.195653        -0.109116
 C         1.453699         0.029529         0.094663
 C         1.984459         0.667135         1.421518
 C         3.446376         0.492018         1.297421
 C         4.032859         0.613208        -0.320229
 C         3.138198         1.330812        -1.244322
 O         1.740736         1.069731        -0.888653
 C         3.597090        -0.705159         0.271470
 O         2.266369        -1.223714        -0.149663
 H        -0.582915        -0.552105         0.826081
 H        -0.526169         0.808964        -0.327188
 H        -0.182678        -0.827318        -0.945517
 H         1.561140         1.630193         1.638093
 H         1.643045         0.013617         2.328844
 H         4.080232         0.542376         2.137557
 H         5.117938         0.666637        -0.441124
 H         3.338846         2.449348        -1.198963
 H         3.232153         1.119668        -2.284173
 H         4.245471        -1.548454         0.493704
