19
Iteration:  2139
 C        -0.080871        -0.205709         0.020841
 C         1.431385         0.051959         0.005876
 C         1.924308         0.564835         1.333632
 C         3.502157         0.565129         1.176634
 C         4.056284         0.579463        -0.226247
 C         3.118215         1.219874        -1.204859
 O         1.730225         1.101436        -0.890842
 C         3.611509        -0.742252         0.369981
 O         2.348813        -1.093855        -0.237537
 H        -0.565309        -0.841138         0.796105
 H        -0.459465         0.816004         0.144820
 H        -0.510632        -0.344399        -1.052290
 H         1.550149         1.581726         1.526860
 H         1.544946        -0.086378         2.174158
 H         4.144194         0.759005         2.091064
 H         5.122029         0.661284        -0.177537
 H         3.366039         2.297847        -1.089140
 H         3.462149         0.888212        -2.196611
 H         4.135422        -1.627396         0.671484
