19
Iteration:   318
 C         0.036780        -0.200489        -0.205019
 C         1.483759         0.053431         0.143354
 C         1.965922         0.685609         1.433120
 C         3.509972         0.413610         1.270863
 C         3.965054         0.619953        -0.107576
 C         3.098587         1.284526        -1.204657
 O         1.701759         1.010669        -0.968529
 C         3.669684        -0.753795         0.231623
 O         2.237328        -1.092968        -0.114240
 H        -0.681708        -0.791935         0.411834
 H        -0.411301         0.740529        -0.299737
 H        -0.022367        -0.490112        -1.205558
 H         1.696098         1.789750         1.286994
 H         1.549512         0.378819         2.423086
 H         4.096851         0.688263         2.136766
 H         5.028799         0.830441        -0.301736
 H         3.181140         2.372443        -1.152996
 H         3.211998         0.774953        -2.241248
 H         4.374697        -1.590399         0.084529
