19
Iteration:  1242
 C        -0.003021        -0.151079        -0.079085
 C         1.513366         0.045688         0.017645
 C         2.001948         0.697616         1.345949
 C         3.496254         0.393586         1.231775
 C         4.036861         0.670173        -0.119308
 C         3.059319         1.450575        -1.085669
 O         1.765020         0.889158        -1.118679
 C         3.547805        -0.800790         0.301366
 O         2.224208        -1.153038        -0.121675
 H        -0.096843        -0.979078         0.581655
 H        -0.483794         0.724313         0.430500
 H        -0.422986        -0.327202        -1.016542
 H         1.750837         1.710103         1.536898
 H         1.522385         0.134771         2.216323
 H         4.142567         0.487699         2.088271
 H         5.042362         0.878296        -0.371018
 H         3.046406         2.560854        -0.692882
 H         3.284840         1.494311        -2.153449
 H         4.362288        -1.517086         0.416274
