19
Iteration:  4535
 C        -0.003762        -0.249485        -0.204223
 C         1.446015         0.121492         0.038216
 C         1.942070         0.481141         1.433369
 C         3.474151         0.408587         1.275463
 C         4.068562         0.645572        -0.163443
 C         3.153116         1.335461        -1.228272
 O         1.699997         1.178286        -0.886808
 C         3.580167        -0.709696         0.312520
 O         2.238681        -1.118585        -0.194187
 H        -0.355225        -1.054860         0.472519
 H        -0.467006         0.674915         0.145518
 H        -0.096150        -0.458113        -1.224942
 H         1.592103         1.505696         1.830200
 H         1.675778        -0.340512         2.009209
 H         4.064772         0.500141         2.127626
 H         5.273344         0.674730        -0.065225
 H         3.295740         2.425415        -1.391245
 H         3.424710         0.674389        -2.065516
 H         4.449601        -1.321645         0.444333
