19
Iteration:  4155charge 0 multiplicity 1
 C         0.035242        -0.157072        -0.152423
 C         1.469703         0.070742         0.015695
 C         1.804743         0.526951         1.455847
 C         3.343950         0.448661         1.348617
 C         3.966491         0.634546        -0.150430
 C         3.174774         1.092233        -1.309403
 O         1.812147         1.212300        -0.787890
 C         3.624414        -0.665026         0.316085
 O         2.381899        -1.077725        -0.303762
 H        -0.229536        -1.162033         0.262229
 H        -0.537784         0.694497         0.207297
 H        -0.268873        -0.410130        -1.221774
 H         1.379066         1.561965         1.665962
 H         1.497753        -0.130669         2.262993
 H         4.000200         0.628420         2.205017
 H         5.006793         0.938092        -0.201988
 H         3.318277         2.085000        -1.640636
 H         3.309604         0.408974        -2.190353
 H         4.200434        -1.544878         0.383664
