19
Iteration:  3137
 C         0.069593        -0.299530        -0.180462
 C         1.430115         0.085311         0.042174
 C         1.968472         0.601197         1.473923
 C         3.407240         0.347711         1.262474
 C         4.040235         0.658477        -0.094293
 C         3.147386         1.260931        -1.214217
 O         1.725623         1.209648        -0.915222
 C         3.540292        -0.728999         0.248108
 O         2.277538        -1.042026        -0.195731
 H        -0.180232        -1.221534         0.361603
 H        -0.605126         0.486155         0.022756
 H         0.000094        -0.578592        -1.169562
 H         1.586559         1.548583         1.642259
 H         1.569346        -0.007045         2.330035
 H         4.106208         0.214148         2.164246
 H         5.132527         0.973069        -0.306521
 H         3.459454         2.300540        -1.409251
 H         3.253487         0.779015        -2.167736
 H         4.190849        -1.640612         0.407480
