19
Iteration:  1295charge 0 multiplicity 1
 C         0.007506        -0.338619        -0.018369
 C         1.456600         0.141060         0.021906
 C         2.068387         0.664512         1.347623
 C         3.523582         0.398839         1.249147
 C         4.037714         0.629320        -0.124167
 C         3.176998         1.482673        -1.056009
 O         1.758496         0.951721        -1.185516
 C         3.461956        -0.753934         0.227993
 O         2.141240        -1.064320        -0.071625
 H        -0.187164        -1.021803         0.783440
 H        -0.782056         0.495374         0.026288
 H        -0.078171        -0.888407        -0.924905
 H         1.820770         1.707191         1.617180
 H         1.631081        -0.052908         2.048720
 H         4.197315         0.303409         2.082773
 H         5.065263         0.925845        -0.165046
 H         3.210226         2.525419        -0.885913
 H         3.505714         1.259610        -2.103952
 H         4.229832        -1.511931         0.401460
