19
Iteration:  3323
 C        -0.036065        -0.134500        -0.114461
 C         1.439415         0.038256        -0.002795
 C         1.962208         0.540704         1.302523
 C         3.460022         0.414308         1.228904
 C         4.024231         0.666423        -0.121342
 C         3.092567         1.389795        -1.105886
 O         1.742133         1.092722        -0.933839
 C         3.569452        -0.761882         0.338511
 O         2.330273        -1.159964        -0.196650
 H        -0.366363        -0.809267         0.643927
 H        -0.477137         0.869536         0.023886
 H        -0.271395        -0.527187        -1.112177
 H         1.525742         1.439951         1.626097
 H         1.576964        -0.210567         1.994362
 H         4.179299         0.407130         2.006538
 H         5.226372         0.904848        -0.054338
 H         3.419919         2.408186        -1.161052
 H         3.364337         0.912202        -2.075132
 H         4.326642        -1.529953         0.439298
