19
Iteration:  4347
 C         0.100037        -0.361182        -0.119968
 C         1.481595         0.134535         0.030636
 C         1.919359         0.710558         1.418223
 C         3.406082         0.304059         1.308000
 C         3.977620         0.693375        -0.037721
 C         3.120094         1.176291        -1.210569
 O         1.735548         1.217240        -0.876937
 C         3.622432        -0.814971         0.262076
 O         2.248130        -0.981755        -0.325731
 H        -0.089673        -1.301627         0.345039
 H        -0.621749         0.365636         0.271263
 H        -0.031324        -0.518454        -1.225953
 H         1.885335         1.793053         1.482445
 H         1.376064         0.232369         2.264104
 H         4.073202         0.420846         2.235918
 H         4.982458         0.897567        -0.099570
 H         3.309713         2.201405        -1.660420
 H         3.369161         0.387726        -1.968585
 H         4.284592        -1.719740         0.340731
