19
Iteration:  3442
 C        -0.100212        -0.126365        -0.111923
 C         1.489180         0.064023        -0.021409
 C         2.012796         0.619227         1.369599
 C         3.524261         0.267235         1.327416
 C         3.980190         0.684313        -0.109575
 C         3.119462         1.548815        -1.043989
 O         1.802079         0.889723        -1.177146
 C         3.568952        -0.686585         0.239163
 O         2.240095        -1.167571        -0.107791
 H        -0.306001        -1.002515         0.475910
 H        -0.589162         0.722442         0.433081
 H        -0.522611        -0.229562        -1.167738
 H         1.803782         1.594848         1.688556
 H         1.522871         0.011611         2.174479
 H         4.052034         0.351433         2.289892
 H         5.132450         0.556741        -0.009060
 H         2.917847         2.643660        -0.724245
 H         3.631068         1.472162        -2.064128
 H         4.355349        -1.505383         0.210731
