19
Iteration:  4026
 C        -0.046452        -0.143540        -0.170162
 C         1.487267         0.049342         0.010548
 C         1.963772         0.627612         1.368792
 C         3.498388         0.306335         1.313067
 C         3.952971         0.700020        -0.124029
 C         3.138491         1.456982        -1.013741
 O         1.780704         0.963014        -1.055265
 C         3.598481        -0.741684         0.224813
 O         2.275778        -1.187900        -0.149123
 H        -0.528222        -0.533340         0.736454
 H        -0.527558         0.874996        -0.124696
 H        -0.447508        -0.641708        -1.128562
 H         1.694501         1.734984         1.469610
 H         1.584865         0.131048         2.272223
 H         4.126704         0.455164         2.171428
 H         5.035281         0.751911        -0.111866
 H         3.030833         2.626682        -0.826541
 H         3.501931         1.280580        -2.070527
 H         4.320062        -1.528088         0.117938
