19
Iteration:   240charge 0 multiplicity 1
 C         0.047196        -0.264676        -0.096028
 C         1.492825         0.098867         0.027476
 C         1.981708         0.748449         1.326531
 C         3.471491         0.347160         1.325996
 C         4.093434         0.636000        -0.107954
 C         3.104401         1.238441        -1.134718
 O         1.646072         1.048759        -0.986477
 C         3.572027        -0.722023         0.276311
 O         2.279777        -1.063982        -0.175310
 H        -0.392430        -1.017290         0.507750
 H        -0.630073         0.545237         0.098603
 H        -0.191565        -0.619497        -1.077619
 H         1.802759         1.893872         1.366945
 H         1.502241         0.264342         2.118113
 H         3.974961         0.442794         2.301270
 H         5.170750         0.872938        -0.329068
 H         3.161749         2.323993        -1.340458
 H         3.269946         0.785614        -2.173438
 H         4.168421        -1.608169         0.257921
