19
Iteration:  3762
 C         0.077770        -0.304786        -0.164597
 C         1.458862         0.161401         0.086675
 C         1.903639         0.614224         1.397469
 C         3.373325         0.348989         1.317246
 C         4.019049         0.625489        -0.114463
 C         3.141651         1.155292        -1.281099
 O         1.788094         1.256361        -0.814306
 C         3.529400        -0.739170         0.254849
 O         2.329408        -1.035863        -0.270731
 H        -0.202439        -1.355663         0.286190
 H        -0.671125         0.430351         0.202902
 H        -0.092862        -0.451194        -1.225206
 H         1.507460         1.714155         1.485464
 H         1.570661        -0.035151         2.260365
 H         3.909367         0.628809         2.248283
 H         4.976960         0.885481        -0.064609
 H         3.621751         2.137496        -1.489977
 H         3.067495         0.446261        -2.121541
 H         4.198197        -1.627578         0.378094
