19
Iteration:   111charge 0 multiplicity 1
 C        -0.000770        -0.309164        -0.012455
 C         1.476991         0.138971         0.094080
 C         1.935313         0.629043         1.459412
 C         3.475201         0.448412         1.249308
 C         4.023912         0.641282        -0.233645
 C         3.227646         1.447697        -1.263812
 O         1.816025         1.021454        -1.077812
 C         3.457775        -0.690342         0.282377
 O         2.201695        -1.166692        -0.118246
 H        -0.284426        -0.968494         0.804687
 H        -0.697478         0.455752        -0.163187
 H        -0.063866        -0.808400        -0.950494
 H         1.547378         1.635519         1.650450
 H         1.809126        -0.130206         2.296420
 H         3.956220         0.392128         2.286594
 H         5.159594         0.566672        -0.217599
 H         3.284342         2.530128        -1.129326
 H         3.532804         1.178309        -2.319893
 H         4.124952        -1.569197         0.521032
