19
Iteration:  3796
 C        -0.066093        -0.160771        -0.186847
 C         1.445999         0.085222         0.052629
 C         1.946060         0.503261         1.403102
 C         3.455631         0.413734         1.300790
 C         4.079954         0.662373        -0.107269
 C         3.153548         1.233182        -1.199205
 O         1.732337         1.087003        -0.917962
 C         3.568704        -0.700674         0.286166
 O         2.326418        -1.070941        -0.215559
 H        -0.496525        -1.035640         0.333561
 H        -0.540154         0.801324         0.111904
 H        -0.113050        -0.106380        -1.318916
 H         1.369584         1.468839         1.741080
 H         1.680869        -0.236096         2.179974
 H         3.969835         0.497681         2.273778
 H         5.131610         0.930471        -0.187730
 H         3.220878         2.318454        -1.364395
 H         3.370277         0.753250        -2.187224
 H         4.270092        -1.457856         0.512579
