19
Iteration:  4632
 C        -0.010897        -0.118374        -0.116673
 C         1.470589        -0.047495         0.042541
 C         1.947162         0.580164         1.342635
 C         3.424924         0.395097         1.223671
 C         3.993956         0.666589        -0.198288
 C         3.103397         1.476625        -1.007577
 O         1.848293         0.948860        -0.977188
 C         3.564238        -0.694834         0.250724
 O         2.240161        -1.176015        -0.201758
 H        -0.379326        -0.839667         0.752304
 H        -0.312685         0.918819         0.215461
 H        -0.260665        -0.299665        -1.151876
 H         1.404698         1.649018         1.482385
 H         1.681715        -0.074649         2.191138
 H         4.165555         0.394386         1.987607
 H         5.192516         0.770849        -0.222645
 H         3.338046         2.555304        -0.666001
 H         3.375554         1.582019        -2.115895
 H         4.264207        -1.500444         0.490140
