19
Iteration:  3084charge 0 multiplicity 1
 C        -0.023801        -0.160492        -0.001477
 C         1.432262        -0.009976        -0.012843
 C         1.980778         0.641346         1.249802
 C         3.460743         0.363077         1.278685
 C         4.059030         0.626574        -0.113629
 C         3.104170         1.552958        -0.994090
 O         1.802381         0.940029        -1.071618
 C         3.601251        -0.757316         0.300210
 O         2.245037        -1.171009        -0.238339
 H        -0.561757        -0.948320         0.565935
 H        -0.488147         0.767288         0.313433
 H        -0.381479        -0.383398        -1.003296
 H         1.640179         1.679868         1.139397
 H         1.329767         0.296684         2.128547
 H         4.127912         0.490102         2.186689
 H         5.249275         0.712144        -0.190997
 H         3.060596         2.534948        -0.565047
 H         3.356259         1.662976        -2.092936
 H         4.345771        -1.576524         0.539227
