19
Iteration:   972charge 0 multiplicity 1
 C        -0.038139        -0.320065        -0.022750
 C         1.427277         0.160154         0.027187
 C         1.947826         0.630991         1.525253
 C         3.427622         0.482617         1.215261
 C         4.096858         0.593652        -0.175804
 C         3.222783         1.253272        -1.278755
 O         1.765368         1.098500        -0.983280
 C         3.504403        -0.752682         0.313379
 O         2.266144        -1.050479        -0.232525
 H        -0.179705        -0.930621         0.837392
 H        -0.715128         0.617761         0.066117
 H        -0.336358        -0.906767        -0.893438
 H         1.576057         1.563387         1.882828
 H         1.744577        -0.136692         2.231205
 H         4.090325         0.674428         2.078770
 H         5.119375         0.881695        -0.215592
 H         3.540309         2.340531        -1.392723
 H         3.238355         0.793345        -2.311426
 H         4.160519        -1.608660         0.469296
