19
Iteration:  4830charge 0 multiplicity 1
 C        -0.101429        -0.288580        -0.046302
 C         1.457982         0.144612        -0.061738
 C         2.007857         0.612084         1.377534
 C         3.508681         0.274021         1.326545
 C         4.054821         0.712228        -0.025725
 C         3.159444         1.439949        -1.081579
 O         1.765358         1.032340        -1.043053
 C         3.606760        -0.760635         0.126760
 O         2.197537        -1.085372        -0.178857
 H        -0.172074        -1.140221         0.561203
 H        -0.732656         0.616391         0.151862
 H        -0.429346        -0.567678        -1.173237
 H         1.823379         1.735587         1.621296
 H         1.636787         0.168685         2.276551
 H         4.147489         0.345196         2.243153
 H         5.032622         0.906965        -0.204536
 H         3.090834         2.449020        -0.933153
 H         3.511016         1.042172        -2.043293
 H         4.162491        -1.685339         0.209779
