19
Iteration:  2817
 C         0.073915        -0.337974        -0.077064
 C         1.437296         0.177925        -0.019095
 C         1.987914         0.623266         1.383373
 C         3.468054         0.339802         1.269513
 C         4.038804         0.625286        -0.081731
 C         3.179471         1.376801        -1.133142
 O         1.698098         1.109883        -1.039888
 C         3.585171        -0.745552         0.253354
 O         2.185401        -1.081630        -0.166254
 H        -0.382444        -0.763682         0.851394
 H        -0.523596         0.575316        -0.264216
 H        -0.181420        -1.006888        -0.940179
 H         1.794319         1.779478         1.569158
 H         1.513806         0.072405         2.288778
 H         4.053111         0.272480         2.164989
 H         5.139140         0.650713        -0.123610
 H         3.305950         2.405143        -1.064432
 H         3.647953         1.160748        -2.126749
 H         4.052311        -1.681923         0.345942
