19
Iteration:  4879charge 0 multiplicity 1
 C        -0.102635        -0.131102        -0.081789
 C         1.471252         0.043079         0.010785
 C         1.989389         0.623067         1.269987
 C         3.535102         0.376258         1.202428
 C         4.054676         0.622306        -0.193069
 C         3.093102         1.568556        -0.874896
 O         1.801938         0.918936        -1.112572
 C         3.573828        -0.782975         0.275428
 O         2.213416        -1.186635        -0.147325
 H        -0.294914        -1.109752         0.538921
 H        -0.557562         0.770040         0.326806
 H        -0.431975        -0.349240        -1.043281
 H         1.697789         1.637379         1.366850
 H         1.660709        -0.049283         2.180695
 H         4.214387         0.497837         2.033401
 H         5.245703         0.916941        -0.136253
 H         2.959279         2.453980        -0.177610
 H         3.413197         1.903630        -1.866500
 H         4.277379        -1.603821         0.168511
