19
Iteration:  2804
 C         0.083507        -0.316656        -0.105519
 C         1.519622         0.156138         0.074171
 C         1.930253         0.632019         1.432837
 C         3.406989         0.361172         1.286458
 C         4.024307         0.617994        -0.108181
 C         3.210797         1.325234        -1.213951
 O         1.745218         1.169968        -0.989945
 C         3.478344        -0.781990         0.194851
 O         2.211187        -1.033272        -0.152551
 H        -0.032716        -1.115144         0.755845
 H        -0.735711         0.384347        -0.251770
 H         0.272715        -0.910274        -0.972890
 H         1.570637         1.703041         1.714380
 H         1.473022        -0.166002         2.067661
 H         4.076797         0.258280         2.120398
 H         5.104813         0.799541        -0.230380
 H         3.439166         2.376908        -1.327991
 H         3.239363         0.730200        -2.153167
 H         4.245657        -1.536258         0.380336
