19
Iteration:  1780charge 0 multiplicity 1
 C         0.105412        -0.284456        -0.009157
 C         1.483810         0.200489         0.024069
 C         1.949817         0.653926         1.524131
 C         3.434256         0.383921         1.315048
 C         3.996728         0.670632        -0.062090
 C         3.078559         1.034294        -1.347467
 O         1.735191         1.193746        -0.954481
 C         3.601396        -0.696035         0.262026
 O         2.258209        -1.009606        -0.325008
 H        -0.037305        -1.100350         0.806068
 H        -0.695116         0.504238         0.296913
 H        -0.064257        -0.862251        -0.883686
 H         1.675212         1.685860         1.549000
 H         1.362170         0.068551         2.245468
 H         4.061313         0.234898         2.180618
 H         5.091493         0.861845        -0.116096
 H         3.236781         2.040155        -1.830506
 H         3.222898         0.245235        -2.068828
 H         4.259074        -1.535556         0.359520
