19
Iteration:  2624charge 0 multiplicity 1
 C        -0.055252        -0.096185        -0.100551
 C         1.474303         0.063057         0.054311
 C         1.918130         0.520617         1.432063
 C         3.435461         0.373757         1.240781
 C         4.010630         0.666920        -0.150161
 C         3.146175         1.451781        -1.157930
 O         1.770927         0.990115        -1.026471
 C         3.612056        -0.757898         0.244456
 O         2.279983        -1.105159        -0.151259
 H        -0.416209        -0.445022         0.881772
 H        -0.584118         0.783930        -0.472222
 H        -0.127051        -1.020217        -0.756929
 H         1.635411         1.500467         1.781620
 H         1.609510        -0.193416         2.208760
 H         4.196876         0.288026         1.996504
 H         5.085480         0.731937        -0.408997
 H         3.087408         2.481635        -0.759648
 H         3.581564         1.148815        -2.177533
 H         4.423137        -1.474077         0.340928
