19
Iteration:  2487
 C        -0.004027        -0.211371        -0.018728
 C         1.465735         0.090218        -0.042652
 C         2.018903         0.633762         1.326629
 C         3.499717         0.334715         1.280721
 C         4.042716         0.619722        -0.108597
 C         3.108165         1.547296        -1.064494
 O         1.795183         0.959907        -1.246225
 C         3.504181        -0.781937         0.316138
 O         2.218206        -1.116282        -0.049278
 H        -0.083416        -0.963558         0.671674
 H        -0.495548         0.595506         0.506641
 H        -0.501038        -0.536778        -0.969222
 H         1.662650         1.672996         1.507723
 H         1.494710        -0.005050         2.034827
 H         4.002649         0.380246         2.277344
 H         5.127937         0.793731        -0.413966
 H         2.988536         2.525574        -0.708424
 H         3.620184         1.508341        -2.091156
 H         4.152138        -1.636249         0.186265
