19
Iteration:   519
 C        -0.041214        -0.341749         0.068079
 C         1.451212         0.185842         0.036417
 C         1.904173         0.679622         1.328002
 C         3.407988         0.329977         1.289769
 C         4.115205         0.638657        -0.121631
 C         3.151600         1.194781        -1.306431
 O         1.742727         1.138797        -1.000994
 C         3.590760        -0.701813         0.336698
 O         2.289225        -1.039876        -0.233104
 H        -0.002332        -1.019848         0.875045
 H        -0.699063         0.519079         0.305805
 H        -0.228787        -0.783601        -0.928595
 H         1.639238         1.702073         1.458444
 H         1.419271        -0.012565         2.166285
 H         3.897105         0.575577         2.208106
 H         5.198216         0.893501        -0.188889
 H         3.409211         2.280096        -1.391885
 H         3.493516         0.649391        -2.241426
 H         4.211111        -1.577024         0.456631
