19
Iteration:  1413
 C        -0.117805        -0.359633        -0.060452
 C         1.465046         0.085058         0.033783
 C         1.995351         0.676247         1.380740
 C         3.454024         0.450067         1.218370
 C         4.092615         0.616754        -0.193513
 C         3.124670         1.269452        -1.157508
 O         1.721463         1.118826        -0.955650
 C         3.610867        -0.745347         0.344226
 O         2.283073        -1.073058        -0.211047
 H        -0.383463        -1.176453         0.600109
 H        -0.620286         0.634242         0.166385
 H        -0.283511        -0.530170        -1.113427
 H         1.865051         1.800583         1.353027
 H         1.599990         0.278329         2.278838
 H         4.069729         0.431277         2.125674
 H         5.130842         0.890626        -0.241081
 H         3.374879         2.386799        -1.115837
 H         3.337639         0.948035        -2.156489
 H         4.145073        -1.679657         0.530029
