19
Iteration:  2165charge 0 multiplicity 1
 C         0.035247        -0.213897        -0.020868
 C         1.484118         0.144493         0.041664
 C         1.904936         0.535399         1.470295
 C         3.444061         0.419005         1.267315
 C         3.981288         0.696265        -0.193155
 C         3.128578         1.137757        -1.373116
 O         1.747855         1.193618        -0.892995
 C         3.613859        -0.722430         0.298244
 O         2.288576        -1.080078        -0.202750
 H        -0.362109        -0.602517         0.871695
 H        -0.494254         0.706875        -0.279590
 H        -0.209527        -0.795076        -0.849055
 H         1.521336         1.564400         1.737196
 H         1.495653        -0.191011         2.203661
 H         4.113079         0.425359         2.070338
 H         5.011138         0.960415        -0.010373
 H         3.387790         2.088490        -1.834035
 H         3.364402         0.306238        -2.108085
 H         4.291574        -1.602924         0.396103
