19
Iteration:  3909charge 0 multiplicity 1
 C        -0.037900        -0.147472        -0.172264
 C         1.413001         0.053502         0.058058
 C         1.941733         0.538216         1.450471
 C         3.443562         0.369681         1.261371
 C         3.995760         0.665245        -0.116826
 C         3.203590         1.402594        -1.122699
 O         1.766018         1.021654        -1.060281
 C         3.598424        -0.724668         0.227915
 O         2.272010        -1.111427        -0.123320
 H        -0.466132        -0.801588         0.618138
 H        -0.553635         0.812035        -0.037648
 H        -0.230651        -0.533562        -1.178735
 H         1.445582         1.485013         1.702968
 H         1.726614        -0.177304         2.269672
 H         4.122379         0.336234         2.092069
 H         5.166935         0.985422        -0.264611
 H         3.257744         2.467065        -1.041466
 H         3.687860         1.114026        -2.142636
 H         4.341175        -1.512450         0.434939
