19
Iteration:  3920
 C        -0.045671        -0.146180        -0.172751
 C         1.535286         0.030514         0.078631
 C         1.917510         0.532518         1.501349
 C         3.418228         0.407475         1.315772
 C         4.041485         0.673851        -0.139627
 C         3.133806         1.368699        -1.229077
 O         1.757131         1.023788        -0.976510
 C         3.584530        -0.700393         0.319239
 O         2.297242        -1.107240        -0.256402
 H        -0.595654        -0.931463         0.435355
 H        -0.402609         0.875551        -0.007815
 H        -0.256180        -0.319650        -1.222559
 H         1.627354         1.584470         1.678850
 H         1.496852        -0.128233         2.297188
 H         4.011885         0.478150         2.205437
 H         5.299954         0.727604        -0.096281
 H         3.267488         2.418585        -1.163822
 H         3.406207         0.935152        -2.286795
 H         4.061353        -1.677425         0.353110
