19
Iteration:  2097charge 0 multiplicity 1
 C         0.010073        -0.322982        -0.048081
 C         1.479799         0.164496        -0.002307
 C         2.137259         0.798500         1.328808
 C         3.569469         0.266580         1.332264
 C         3.902045         0.626934        -0.156093
 C         3.120912         1.530994        -1.061122
 O         1.734029         0.886663        -1.184296
 C         3.493435        -0.827001         0.223333
 O         2.165079        -1.076806         0.019865
 H         0.091294        -1.295503         0.396293
 H        -0.686005         0.354403         0.347987
 H        -0.480123        -0.311080        -1.101084
 H         1.969393         1.939480         1.394617
 H         1.508593         0.410513         2.221460
 H         4.453123         0.358559         2.019519
 H         4.938570         0.865968        -0.344570
 H         3.253114         2.668764        -0.978908
 H         3.553879         1.368325        -2.165718
 H         4.256280        -1.549621        -0.007914
