19
Iteration:  2128
 C        -0.028670        -0.194906        -0.014080
 C         1.475335         0.042915         0.069147
 C         1.950772         0.682332         1.350370
 C         3.459028         0.469974         1.180261
 C         4.120144         0.566324        -0.191113
 C         3.201777         1.332956        -1.169897
 O         1.685607         0.994707        -0.952170
 C         3.558928        -0.734632         0.303281
 O         2.254555        -1.086352        -0.186098
 H        -0.396282        -1.065127         0.604986
 H        -0.443267         0.700840         0.422938
 H        -0.283274        -0.440381        -1.108416
 H         1.454930         1.657194         1.401071
 H         1.711087         0.024552         2.237548
 H         4.163242         0.378475         2.061636
 H         5.082624         0.987576        -0.357789
 H         3.141293         2.432337        -1.200610
 H         3.263338         0.959046        -2.198864
 H         4.222941        -1.523602         0.562419
