19
Iteration:  1673
 C        -0.046906        -0.170766         0.036791
 C         1.479311         0.026942         0.119261
 C         2.081295         0.774648         1.331062
 C         3.509566         0.346169         1.294022
 C         3.988679         0.643668        -0.176023
 C         3.059075         1.516448        -1.014370
 O         1.791154         0.824353        -1.202654
 C         3.550312        -0.770856         0.234383
 O         2.252977        -1.141809        -0.188365
 H        -0.461638        -0.761614         0.877264
 H        -0.684347         0.670755        -0.225467
 H        -0.175414        -0.717734        -0.838238
 H         1.718673         1.808689         1.013102
 H         1.636329         0.569326         2.279197
 H         3.914331         0.418699         2.319303
 H         5.089260         0.812665        -0.245147
 H         2.865056         2.472102        -0.546892
 H         3.545698         1.653026        -2.045213
 H         4.200392        -1.629204         0.308073
