19
Iteration:   687charge 0 multiplicity 1
 C        -0.089660        -0.255030        -0.192033
 C         1.464066         0.071685         0.108834
 C         2.026432         0.640200         1.419860
 C         3.514996         0.451278         1.260422
 C         4.011046         0.639098        -0.250163
 C         3.126591         1.261302        -1.268103
 O         1.777816         1.113323        -0.956107
 C         3.560033        -0.706927         0.326742
 O         2.241332        -1.100653        -0.034319
 H        -0.461677        -0.999634         0.540168
 H        -0.627443         0.623429        -0.142655
 H        -0.115771        -0.746462        -1.148486
 H         1.651810         1.719985         1.692683
 H         1.613805        -0.100852         2.146851
 H         4.141747         0.490026         2.154437
 H         5.095809         0.549943        -0.384277
 H         3.163368         2.332428        -1.371447
 H         3.343943         0.782017        -2.291903
 H         4.332599        -1.440833         0.341468
