19
Iteration:  2541charge 0 multiplicity 1
 C        -0.031367        -0.252276        -0.117872
 C         1.436000         0.068422         0.017871
 C         1.958549         0.555530         1.422673
 C         3.440226         0.455825         1.274987
 C         4.047373         0.575856        -0.147782
 C         3.126849         1.246357        -1.251703
 O         1.772443         1.215537        -0.891205
 C         3.568103        -0.685834         0.328126
 O         2.301663        -1.126129        -0.195651
 H        -0.273666        -1.242376         0.000425
 H        -0.620135         0.393022         0.539748
 H        -0.301038         0.112596        -1.167777
 H         1.707127         1.632662         1.608895
 H         1.378832        -0.127817         2.064820
 H         4.135652         0.548143         2.179066
 H         5.104941         0.893587        -0.430494
 H         3.417034         2.256022        -1.577768
 H         3.313520         0.694954        -2.125858
 H         4.211109        -1.527692         0.537698
