19
Iteration:  3671
 C        -0.052667        -0.125736        -0.124002
 C         1.414421         0.093492         0.007943
 C         2.017993         0.626787         1.332126
 C         3.537167         0.341772         1.298911
 C         4.053205         0.701221        -0.115234
 C         3.061670         1.528465        -0.887478
 O         1.868214         0.845629        -1.256890
 C         3.559349        -0.759460         0.232398
 O         2.191601        -1.170268        -0.096497
 H        -0.356330        -0.680585         0.858950
 H        -0.585717         0.844074         0.053078
 H        -0.289170        -0.735304        -1.088756
 H         1.735210         1.687521         1.553677
 H         1.478400         0.011735         2.188860
 H         4.166113         0.276015         2.149492
 H         5.185308         0.932803        -0.404185
 H         2.756251         2.550381        -0.369961
 H         3.580678         1.721889        -1.859612
 H         4.088450        -1.677886         0.175878
