19
Iteration:  2398charge 0 multiplicity 1
 C         0.001024        -0.175289        -0.047950
 C         1.471561         0.017773         0.102613
 C         1.909100         0.441161         1.447932
 C         3.432356         0.496628         1.253316
 C         3.998952         0.676895        -0.202926
 C         3.191662         1.226664        -1.336806
 O         1.831006         1.124532        -0.927080
 C         3.515041        -0.637752         0.293917
 O         2.278215        -1.063866        -0.185845
 H        -0.500502        -0.123301         0.895420
 H        -0.441390         0.586112        -0.620224
 H        -0.215517        -1.064109        -0.593477
 H         1.345469         1.289413         1.829303
 H         1.727005        -0.446145         2.140500
 H         4.025238         0.572085         2.104118
 H         5.071841         0.798022        -0.140779
 H         3.417305         2.309370        -1.422403
 H         3.344406         0.789566        -2.435572
 H         4.052376        -1.601180         0.478734
