19
Iteration:  4059
 C        -0.019376        -0.179136        -0.105333
 C         1.470209         0.098807        -0.020948
 C         2.006431         0.654631         1.354878
 C         3.519926         0.308760         1.263614
 C         3.987271         0.655315        -0.146240
 C         3.081013         1.570299        -0.901321
 O         1.907845         0.814314        -1.222469
 C         3.487509        -0.746390         0.281168
 O         2.202486        -1.107130        -0.126070
 H        -0.144643        -0.643289         0.931158
 H        -0.577958         0.787821        -0.174990
 H        -0.541669        -0.877337        -0.858276
 H         1.620024         1.689685         1.619640
 H         1.472148        -0.075428         2.002975
 H         4.083220         0.389603         2.166294
 H         5.097349         0.737963        -0.398405
 H         2.983040         2.546340        -0.196998
 H         3.457354         1.912917        -1.911057
 H         4.201442        -1.515416         0.224697
