19
Iteration:  4678
 C         0.057924        -0.332186        -0.093963
 C         1.506198         0.134376        -0.038444
 C         2.056203         0.741283         1.402334
 C         3.468709         0.275767         1.306837
 C         4.015353         0.641873        -0.145457
 C         3.105071         1.528348        -0.939672
 O         1.782670         0.918260        -1.132735
 C         3.473759        -0.807075         0.177924
 O         2.166241        -1.055239        -0.142944
 H        -0.143810        -1.225593         0.480311
 H        -0.546499         0.443532         0.414669
 H        -0.237595        -0.488447        -1.194092
 H         2.116195         1.898358         1.331863
 H         1.510738         0.421358         2.283981
 H         4.072535         0.213185         2.231648
 H         5.127980         0.693194        -0.285552
 H         2.952832         2.607513        -0.538809
 H         3.445735         1.739357        -1.954982
 H         4.124292        -1.679548         0.149862
