19
Iteration:  1395charge 0 multiplicity 1
 C         0.028206        -0.345777        -0.084264
 C         1.429761         0.156840         0.005212
 C         1.926421         0.638131         1.427776
 C         3.487068         0.448151         1.312620
 C         3.984128         0.600430        -0.155822
 C         3.205193         1.235724        -1.276048
 O         1.750107         1.180257        -0.957343
 C         3.535914        -0.705449         0.257108
 O         2.240169        -1.045167        -0.142406
 H         0.174468        -1.156634         0.699858
 H        -0.750718         0.260825         0.384354
 H        -0.323673        -0.804000        -1.008285
 H         1.488674         1.538122         1.741352
 H         1.755609        -0.229853         2.107355
 H         4.316937         0.577068         2.044561
 H         5.107840         0.640092        -0.259955
 H         3.333087         2.257916        -1.523251
 H         3.498576         0.622911        -2.221022
 H         4.196048        -1.563133         0.341707
