19
Iteration:  3380
 C         0.016184        -0.359823        -0.180171
 C         1.427760         0.077633         0.018659
 C         1.966467         0.620796         1.341129
 C         3.461212         0.358176         1.291842
 C         4.052404         0.604215        -0.061835
 C         3.103885         1.227391        -1.133092
 O         1.729529         1.316393        -0.837357
 C         3.600096        -0.754136         0.287587
 O         2.242194        -1.031589        -0.306710
 H        -0.189933        -0.875178         0.718904
 H        -0.689643         0.461325        -0.275594
 H        -0.146103        -1.071296        -1.021643
 H         1.780491         1.740013         1.465224
 H         1.596930         0.058104         2.181311
 H         4.181468         0.439034         2.131568
 H         5.227243         0.854758        -0.096789
 H         3.596446         2.217915        -1.468987
 H         3.076179         0.573708        -2.022790
 H         4.285077        -1.607247         0.475007
