19
Iteration:  4131
 C        -0.018687        -0.290591        -0.127851
 C         1.443937         0.142275        -0.009398
 C         1.930715         0.520478         1.421271
 C         3.448631         0.403519         1.254290
 C         4.041136         0.694501        -0.069354
 C         3.247142         1.214347        -1.233959
 O         1.737237         1.217289        -0.996491
 C         3.585882        -0.743087         0.348694
 O         2.228226        -1.037328        -0.159798
 H        -0.214135        -1.199311         0.268929
 H        -0.718996         0.496742         0.097141
 H        -0.183108        -0.506202        -1.207912
 H         1.570622         1.418046         1.901667
 H         1.723571        -0.300026         2.077406
 H         4.020645         0.410049         2.186262
 H         5.010090         0.921491        -0.113169
 H         3.400235         2.334653        -1.500354
 H         3.495352         0.597724        -2.093013
 H         4.108525        -1.710069         0.430004
