19
Iteration:    99
 C         0.068199        -0.250112        -0.119911
 C         1.451608         0.101970         0.070321
 C         1.954498         0.572911         1.424514
 C         3.436336         0.460431         1.208105
 C         4.042517         0.633036        -0.219794
 C         3.150434         1.334352        -1.206123
 O         1.781264         0.999416        -1.013874
 C         3.555531        -0.704505         0.268403
 O         2.171902        -1.045481        -0.024894
 H        -0.274587        -0.875511         0.630924
 H        -0.462543         0.645508        -0.088634
 H         0.007424        -0.780252        -1.032134
 H         1.570959         1.554248         1.854015
 H         1.511991        -0.217172         2.097867
 H         4.221193         0.494089         2.017214
 H         5.128417         0.872714        -0.379058
 H         3.275267         2.402155        -1.096979
 H         3.414019         1.077621        -2.293270
 H         4.249799        -1.584866         0.356427
