19
Iteration:   849
 C         0.035768        -0.220611         0.036260
 C         1.460641         0.144558         0.035738
 C         2.051690         0.821629         1.342907
 C         3.506743         0.369156         1.294324
 C         3.982906         0.584164        -0.144622
 C         3.100481         1.417325        -1.063157
 O         1.771563         0.862606        -1.120317
 C         3.503842        -0.764801         0.188525
 O         2.219302        -1.120662        -0.171652
 H        -0.182824        -0.830105         0.986124
 H        -0.618235         0.644042        -0.041879
 H        -0.138364        -0.976057        -0.814727
 H         1.832510         1.823135         1.240448
 H         1.452404         0.393540         2.129693
 H         4.076734         0.541907         2.200802
 H         5.075095         0.757015        -0.356657
 H         2.975094         2.445547        -0.655647
 H         3.604015         1.382349        -2.038850
 H         4.170285        -1.650806         0.284876
