19
Iteration:  1887
 C         0.019444        -0.257915         0.121220
 C         1.494807         0.051793        -0.000370
 C         1.998944         0.780737         1.216947
 C         3.454973         0.403018         1.216843
 C         4.034771         0.519264        -0.201812
 C         3.094299         1.487935        -0.985984
 O         1.839504         0.910338        -1.123578
 C         3.516851        -0.786459         0.250976
 O         2.178876        -1.121698        -0.169334
 H         0.074307        -1.063399         0.888137
 H        -0.524161         0.652584         0.514206
 H        -0.430057        -0.527538        -0.774750
 H         1.839423         1.848513         1.176096
 H         1.378999         0.435167         2.147408
 H         3.936823         0.759485         2.075646
 H         5.037047         0.950805        -0.329774
 H         3.077583         2.447723        -0.393239
 H         3.616742         1.801239        -1.914793
 H         4.136708        -1.691501         0.420015
