19
Iteration:  4086charge 0 multiplicity 1
 C        -0.007232        -0.241748        -0.108260
 C         1.465362         0.059280         0.043978
 C         2.023387         0.749255         1.236215
 C         3.457094         0.312485         1.244379
 C         4.048040         0.602587        -0.097386
 C         3.117877         1.520443        -0.931431
 O         1.756348         1.024126        -1.117922
 C         3.549085        -0.790665         0.245073
 O         2.227403        -1.208456        -0.135048
 H        -0.303545        -0.912654         0.657372
 H        -0.542930         0.708116        -0.056886
 H        -0.240810        -0.746902        -0.999404
 H         1.813275         1.764659         1.026969
 H         1.398964         0.457440         2.069449
 H         3.979812         0.354092         2.219888
 H         5.119527         0.839596        -0.096009
 H         3.245849         2.474884        -0.392111
 H         3.456265         1.690844        -1.930593
 H         4.295710        -1.604103         0.500554
