19
Iteration:  2594
 C        -0.001354        -0.291144        -0.090134
 C         1.450020         0.048732         0.000001
 C         1.977158         0.704473         1.404870
 C         3.446237         0.363362         1.297328
 C         4.013663         0.621137        -0.033584
 C         3.108215         1.215439        -1.215973
 O         1.698906         1.228261        -0.858178
 C         3.590928        -0.776985         0.292341
 O         2.309003        -1.044318        -0.331830
 H        -0.184390        -0.954814         0.701929
 H        -0.644638         0.601847        -0.107320
 H        -0.192036        -0.875426        -1.070244
 H         1.720635         1.779144         1.317405
 H         1.535244         0.239381         2.290425
 H         4.156528         0.248613         2.165358
 H         5.100271         0.724749        -0.324253
 H         3.502390         2.271608        -1.486404
 H         3.343021         0.609636        -2.134051
 H         4.320802        -1.572433         0.381448
