19
Iteration:  4760
 C        -0.066366        -0.199715        -0.225671
 C         1.458309         0.038302         0.079393
 C         1.973169         0.528895         1.540673
 C         3.452989         0.308216         1.292634
 C         4.053020         0.762310        -0.088591
 C         3.146523         1.202355        -1.305739
 O         1.747117         1.178336        -0.829300
 C         3.605932        -0.699352         0.211646
 O         2.268160        -0.996877        -0.225909
 H        -0.414659        -1.000942         0.574657
 H        -0.643869         0.703420        -0.419619
 H        -0.035219        -0.788285        -1.073850
 H         1.464522         1.445887         1.705041
 H         1.531242        -0.216217         2.248822
 H         4.143770         0.363767         2.106335
 H         5.231826         0.945463        -0.209682
 H         3.385339         2.234121        -1.558485
 H         3.244913         0.401424        -2.065874
 H         4.171765        -1.644163         0.080660
