19
Iteration:  3523
 C         0.085772        -0.309085        -0.201658
 C         1.463364         0.177985         0.015236
 C         1.936564         0.607304         1.452497
 C         3.500595         0.369760         1.333646
 C         3.985418         0.633170        -0.150680
 C         3.172818         1.325151        -1.169477
 O         1.747310         1.094268        -0.948160
 C         3.495425        -0.707950         0.275507
 O         2.217577        -1.090879        -0.195066
 H        -0.278838        -0.914803         0.667889
 H        -0.532750         0.545295        -0.366364
 H         0.025663        -0.915785        -1.045706
 H         1.770041         1.701326         1.614310
 H         1.536418        -0.007771         2.189168
 H         4.017519         0.364104         2.280032
 H         5.014891         0.711201        -0.185467
 H         3.542271         2.458077        -1.074897
 H         3.406638         1.030357        -2.179841
 H         4.182442        -1.551803         0.281563
