19
Iteration:  1580charge 0 multiplicity 1
 C        -0.018495        -0.251238        -0.125994
 C         1.445183         0.021617         0.021952
 C         1.984791         0.589263         1.408688
 C         3.410248         0.466208         1.247240
 C         4.068319         0.637729        -0.152424
 C         3.108516         1.127411        -1.274721
 O         1.688347         1.289738        -0.879197
 C         3.653616        -0.710011         0.351118
 O         2.320701        -1.102173        -0.167683
 H        -0.335585        -1.079826         0.575732
 H        -0.535825         0.656533         0.119313
 H        -0.460870        -0.401767        -1.205985
 H         1.536835         1.536102         1.598804
 H         1.796224        -0.138229         2.221204
 H         4.080264         0.638587         2.035648
 H         5.053846         1.015892        -0.368199
 H         3.409216         2.063537        -1.824026
 H         3.006349         0.360874        -1.992770
 H         4.287226        -1.588795         0.435510
