19
Iteration:  1805
 C        -0.104335        -0.241379        -0.042763
 C         1.425813         0.065641         0.017595
 C         1.950939         0.529866         1.404368
 C         3.501464         0.507524         1.151578
 C         4.066170         0.598614        -0.179689
 C         3.137248         1.193153        -1.280677
 O         1.756165         1.175868        -0.877840
 C         3.614073        -0.737382         0.384931
 O         2.302608        -1.009021        -0.201317
 H        -0.417403        -0.793348         0.889757
 H        -0.639118         0.669227        -0.020156
 H        -0.359255        -0.986200        -0.824006
 H         1.530923         1.552515         1.569796
 H         1.634199        -0.177497         2.109324
 H         4.160929         0.672430         1.985011
 H         5.121746         0.847113        -0.196028
 H         3.234081         2.274091        -1.433307
 H         3.344653         0.619663        -2.239041
 H         4.162172        -1.703981         0.510701
