19
Iteration:  2999
 C         0.016435        -0.183274        -0.167092
 C         1.476755         0.068297         0.055871
 C         1.908088         0.548520         1.373831
 C         3.432565         0.387603         1.230004
 C         3.973553         0.648763        -0.156653
 C         3.097942         1.296533        -1.204377
 O         1.719788         1.128221        -0.841588
 C         3.660029        -0.765374         0.337460
 O         2.329756        -1.088775        -0.213390
 H        -0.444560        -0.643561         0.743170
 H        -0.187059         0.879734        -0.245842
 H        -0.194772        -0.693825        -1.136616
 H         1.536442         1.613237         1.434923
 H         1.517558         0.058104         2.251745
 H         3.998257         0.420456         2.185712
 H         5.089156         0.717104        -0.091694
 H         3.431530         2.343566        -1.344249
 H         3.139236         0.906848        -2.267768
 H         4.343523        -1.618619         0.275580
