19
Iteration:  2665
 C        -0.029274        -0.206531        -0.069966
 C         1.448935         0.144587        -0.054587
 C         2.062919         0.720159         1.297319
 C         3.526757         0.279383         1.266808
 C         4.033066         0.652306        -0.143182
 C         3.033275         1.549870        -0.922984
 O         1.803058         0.906436        -1.124355
 C         3.537815        -0.786309         0.210200
 O         2.252162        -1.188752        -0.085676
 H        -0.496888        -0.485506         0.943790
 H        -0.502803         0.712348        -0.445373
 H        -0.335458        -0.901058        -0.834322
 H         2.000003         1.860443         1.195070
 H         1.370720         0.292705         2.070077
 H         3.975684         0.142352         2.230161
 H         5.100093         0.730719        -0.291420
 H         2.823466         2.426524        -0.165882
 H         3.410504         1.764052        -1.955793
 H         4.220425        -1.651273         0.154740
