19
Iteration:   619charge 0 multiplicity 1
 C        -0.040562        -0.297972         0.129778
 C         1.466501         0.073098        -0.093797
 C         1.930669         0.782600         1.273211
 C         3.387901         0.418437         1.137160
 C         4.076192         0.576914        -0.184176
 C         3.143131         1.458608        -1.045881
 O         1.849283         0.961987        -1.124208
 C         3.596601        -0.798483         0.305100
 O         2.200265        -1.132818        -0.113144
 H        -0.061077        -0.898806         1.065515
 H        -0.519753         0.677908         0.207859
 H        -0.369199        -0.951179        -0.645331
 H         1.813383         1.880156         1.396399
 H         1.501450         0.337173         2.285307
 H         4.090497         0.584785         1.956602
 H         5.074017         0.877552        -0.135402
 H         3.197003         2.373605        -0.416238
 H         3.501087         1.708012        -2.071462
 H         4.060627        -1.796185         0.432804
