19
Iteration:  4075
 C        -0.081720        -0.223979        -0.056156
 C         1.467874         0.076871        -0.138415
 C         2.004534         0.706210         1.275975
 C         3.503820         0.391969         1.308148
 C         4.003350         0.593812        -0.103850
 C         3.129940         1.564268        -0.870911
 O         1.805834         0.980256        -1.178531
 C         3.575728        -0.799767         0.226140
 O         2.225497        -1.231729        -0.092301
 H        -0.420581        -0.760090         0.803775
 H        -0.690711         0.665542        -0.143478
 H        -0.279740        -0.714261        -0.965983
 H         1.912090         1.764382         1.299823
 H         1.587516         0.358822         2.218032
 H         4.177226         0.464857         2.196352
 H         5.107622         0.603785        -0.246481
 H         2.803881         2.431764        -0.359022
 H         3.590789         1.815215        -1.797446
 H         4.275610        -1.703025         0.177531
