19
Iteration:  4717
 C        -0.039037        -0.254978        -0.081346
 C         1.436620         0.068719        -0.051952
 C         1.919101         0.561445         1.351167
 C         3.457694         0.364082         1.247338
 C         4.057947         0.564209        -0.118912
 C         3.161430         1.429949        -1.149008
 O         1.734140         1.145630        -0.959703
 C         3.589305        -0.764337         0.326692
 O         2.310852        -1.065277        -0.217017
 H        -0.332768        -0.996294         0.822378
 H        -0.435121         0.733281         0.280259
 H        -0.588549        -0.693475        -0.862096
 H         1.706472         1.627862         1.408668
 H         1.570937        -0.047649         2.231637
 H         4.075457         0.315524         2.112264
 H         5.210443         0.855959        -0.139295
 H         3.263663         2.449753        -0.877150
 H         3.377966         1.127333        -2.213811
 H         4.242248        -1.657503         0.319969
