19
Iteration:  3861
 C        -0.011097        -0.340640        -0.045499
 C         1.447029         0.116890        -0.021549
 C         2.038075         0.820967         1.292666
 C         3.430814         0.340841         1.284735
 C         4.055738         0.537178        -0.138608
 C         3.083344         1.445677        -0.880753
 O         1.815357         0.973386        -1.095684
 C         3.548358        -0.784523         0.234736
 O         2.234472        -1.108928        -0.246356
 H        -0.446012        -0.722912         0.856684
 H        -0.699280         0.527263        -0.182225
 H        -0.190547        -1.004173        -0.981878
 H         2.005039         1.994423         1.124504
 H         1.392800         0.688982         2.176817
 H         4.155586         0.341883         2.130706
 H         5.079667         0.773642        -0.139100
 H         2.950328         2.418096        -0.291821
 H         3.606922         1.855936        -1.705622
 H         4.049813        -1.724961         0.314894
