19
Iteration:  1399
 C         0.009045        -0.335823        -0.083130
 C         1.395366         0.123858        -0.034604
 C         1.963335         0.645321         1.431703
 C         3.497089         0.450786         1.284501
 C         4.003892         0.591362        -0.126304
 C         3.195966         1.214971        -1.270382
 O         1.744156         1.181751        -0.951512
 C         3.537289        -0.708809         0.249155
 O         2.265146        -1.036023        -0.134741
 H         0.076094        -1.132440         0.644295
 H        -0.781206         0.238801         0.347640
 H        -0.430026        -0.821146        -0.981084
 H         1.475072         1.644154         1.703110
 H         1.740501        -0.181879         2.203953
 H         4.211025         0.536768         2.091536
 H         5.063114         0.665404        -0.337792
 H         3.381056         2.338791        -1.367452
 H         3.437719         0.747621        -2.225298
 H         4.258442        -1.508892         0.438236
