19
Iteration:  4540charge 0 multiplicity 1
 C        -0.018578        -0.272166        -0.172579
 C         1.443387         0.096946         0.060265
 C         1.928340         0.506929         1.375528
 C         3.475894         0.418529         1.269623
 C         4.094788         0.627730        -0.143880
 C         3.150824         1.325392        -1.235395
 O         1.719644         1.218255        -0.839582
 C         3.558209        -0.715554         0.288800
 O         2.268592        -1.108352        -0.218858
 H        -0.308835        -1.051351         0.529139
 H        -0.677810         0.621871         0.020602
 H        -0.098271        -0.530221        -1.298817
 H         1.485703         1.399197         1.693217
 H         1.667341        -0.332892         2.175207
 H         4.084573         0.685553         2.215058
 H         5.120354         0.568785        -0.126110
 H         3.399934         2.362710        -1.450581
 H         3.370843         0.752901        -2.170989
 H         4.354346        -1.453862         0.591152
