19
Iteration:   617
 C        -0.022880        -0.307470         0.130491
 C         1.465190         0.077046        -0.093210
 C         1.940085         0.792680         1.268098
 C         3.389977         0.411052         1.147067
 C         4.056816         0.591937        -0.198494
 C         3.136679         1.459466        -1.046649
 O         1.868306         0.950330        -1.112993
 C         3.583571        -0.799925         0.303492
 O         2.191672        -1.123704        -0.110592
 H        -0.051852        -0.898507         1.042366
 H        -0.502911         0.735181         0.211682
 H        -0.331164        -0.935750        -0.729220
 H         1.824131         1.812757         1.373968
 H         1.528835         0.319339         2.225216
 H         4.073880         0.528335         1.983689
 H         5.103795         0.881351        -0.137691
 H         3.163604         2.404691        -0.445069
 H         3.401669         1.663654        -2.024796
 H         4.043506        -1.815687         0.483681
