19
Iteration:  2358charge 0 multiplicity 1
 C         0.028367        -0.252399        -0.068201
 C         1.447352         0.096104         0.025946
 C         1.993216         0.653568         1.411201
 C         3.415956         0.350267         1.339031
 C         4.038791         0.648826        -0.121545
 C         3.029994         1.114617        -1.274236
 O         1.693641         1.200462        -0.882092
 C         3.579202        -0.763737         0.309625
 O         2.352262        -0.998542        -0.260046
 H        -0.305952        -0.843092         0.754418
 H        -0.407870         0.715438        -0.369550
 H         0.004328        -0.922766        -1.043254
 H         1.838707         1.750185         1.392182
 H         1.580316         0.249991         2.320318
 H         4.063641         0.305779         2.172888
 H         5.081793         0.991028        -0.231579
 H         3.312433         2.082737        -1.794952
 H         3.214678         0.468315        -2.094628
 H         4.292147        -1.560645         0.262164
