19
Iteration:  2663charge 0 multiplicity 1
 C        -0.032809        -0.193280        -0.072778
 C         1.464339         0.139348        -0.037737
 C         2.052516         0.696458         1.300413
 C         3.540206         0.295943         1.246435
 C         4.016312         0.665826        -0.130926
 C         3.041409         1.540683        -0.922115
 O         1.812997         0.898896        -1.131679
 C         3.549716        -0.786107         0.213366
 O         2.229275        -1.181589        -0.087563
 H        -0.504399        -0.482269         0.936024
 H        -0.567336         0.681543        -0.474006
 H        -0.293031        -0.908807        -0.799587
 H         1.998187         1.861086         1.240532
 H         1.398629         0.224670         2.069683
 H         4.015207         0.175289         2.230862
 H         5.073259         0.698435        -0.295694
 H         2.777793         2.476657        -0.234348
 H         3.450892         1.788270        -1.914035
 H         4.205247        -1.682020         0.132334
