19
Iteration:  2514
 C        -0.047827        -0.053244        -0.118765
 C         1.434864         0.021679         0.093118
 C         1.980631         0.633469         1.430705
 C         3.435805         0.400706         1.215641
 C         4.004566         0.682352        -0.091249
 C         3.105025         1.335539        -1.092479
 O         1.788432         0.882658        -1.006114
 C         3.592837        -0.746079         0.234891
 O         2.338503        -1.123070        -0.219439
 H        -0.518622        -1.093275         0.169723
 H        -0.537421         0.645166         0.591551
 H        -0.250004         0.200618        -1.142937
 H         1.734793         1.688549         1.408684
 H         1.431924         0.180840         2.283190
 H         4.034732         0.604872         2.061854
 H         4.931905         1.135421        -0.231277
 H         3.125444         2.521160        -1.206048
 H         3.478418         0.886157        -2.056042
 H         4.278276        -1.601473         0.217113
