19
Iteration:  3755
 C         0.096734        -0.339047        -0.138665
 C         1.456531         0.147239         0.087950
 C         1.893134         0.643918         1.410359
 C         3.331350         0.364742         1.320814
 C         4.041454         0.612460        -0.125392
 C         3.152976         1.162134        -1.284174
 O         1.787253         1.256739        -0.826492
 C         3.566523        -0.705607         0.258161
 O         2.271915        -1.009140        -0.263448
 H         0.049911        -1.246303         0.294129
 H        -0.708544         0.342354         0.080139
 H        -0.078879        -0.599990        -1.228704
 H         1.685946         1.652310         1.628686
 H         1.460541        -0.099364         2.033188
 H         4.045001         0.255683         2.132457
 H         5.224057         0.821809        -0.139416
 H         3.480497         2.152633        -1.403064
 H         3.269978         0.436247        -2.130632
 H         3.965756        -1.663346         0.378096
