19
Iteration:   244
 C         0.030091        -0.268910        -0.086177
 C         1.454554         0.099874         0.007769
 C         1.994529         0.766982         1.354264
 C         3.464522         0.329937         1.315999
 C         4.094053         0.632394        -0.097416
 C         3.108328         1.261073        -1.177613
 O         1.680024         1.058658        -0.982242
 C         3.585058        -0.702161         0.300572
 O         2.285027        -1.071504        -0.199451
 H        -0.279976        -1.053219         0.662188
 H        -0.695709         0.508510         0.089080
 H        -0.221075        -0.702116        -1.046548
 H         1.813627         1.809554         1.398998
 H         1.311517         0.292016         2.187217
 H         4.002197         0.262049         2.240766
 H         5.105478         0.867285        -0.339246
 H         3.103698         2.301717        -1.406730
 H         3.274370         0.728730        -2.129115
 H         4.181088        -1.608958         0.391972
