19
Iteration:  2623charge 0 multiplicity 1
 C        -0.052993        -0.096433        -0.102494
 C         1.465195         0.063584         0.053372
 C         1.922867         0.521042         1.421722
 C         3.438468         0.366996         1.241204
 C         4.012888         0.666376        -0.146985
 C         3.143786         1.446407        -1.157440
 O         1.765705         0.996277        -1.020052
 C         3.616613        -0.759264         0.247431
 O         2.281717        -1.104276        -0.153729
 H        -0.417274        -0.465359         0.903265
 H        -0.580862         0.780294        -0.476965
 H        -0.116177        -0.992304        -0.750185
 H         1.605382         1.519975         1.749392
 H         1.616084        -0.196194         2.207821
 H         4.185727         0.328802         2.000174
 H         5.068514         0.758972        -0.402564
 H         3.128992         2.477908        -0.778635
 H         3.561751         1.116154        -2.149714
 H         4.431790        -1.479020         0.342378
