19
Iteration:  3415charge 0 multiplicity 1
 C         0.035913        -0.223053        -0.182218
 C         1.502928         0.090105         0.053412
 C         1.937051         0.581507         1.450268
 C         3.435525         0.376302         1.216775
 C         4.031460         0.603009        -0.169456
 C         3.161682         1.380775        -1.101509
 O         1.789306         1.047418        -0.967576
 C         3.553947        -0.719044         0.246402
 O         2.193838        -1.081301        -0.187058
 H        -0.138126        -1.106597         0.513394
 H        -0.633602         0.562710         0.131245
 H        -0.139789        -0.573432        -1.175468
 H         1.641366         1.681627         1.718283
 H         1.561400        -0.049730         2.283815
 H         4.081405         0.526483         2.081682
 H         5.058248         0.874847         0.004499
 H         3.188807         2.601322        -0.956901
 H         3.421718         1.143656        -2.156876
 H         4.132016        -1.568840         0.411367
