19
Iteration:  3685
 C        -0.046906        -0.091298        -0.066272
 C         1.497834         0.047317        -0.020388
 C         1.993587         0.624173         1.357222
 C         3.482125         0.349756         1.268350
 C         3.951781         0.656043        -0.085276
 C         3.112006         1.545394        -0.997425
 O         1.838098         0.874813        -1.127696
 C         3.585064        -0.759913         0.221827
 O         2.216056        -1.203596        -0.147989
 H        -0.647409        -0.711065         0.736124
 H        -0.444844         0.885329        -0.339961
 H        -0.298717        -0.611040        -0.984905
 H         1.727073         1.763089         1.368236
 H         1.578158         0.055771         2.230557
 H         4.089296         0.456103         2.185700
 H         4.976005         0.793474        -0.124276
 H         3.047455         2.516762        -0.495536
 H         3.501432         1.715477        -2.008242
 H         4.507049        -1.449581         0.250239
