19
Iteration:   496
 C         0.005423        -0.322393        -0.046003
 C         1.473811         0.106593        -0.007395
 C         2.047579         0.761180         1.487110
 C         3.506402         0.392214         1.311361
 C         3.958188         0.612401         0.003535
 C         3.092361         1.161384        -1.217595
 O         1.652918         1.074739        -1.022867
 C         3.526816        -0.748848         0.277917
 O         2.331765        -0.959614        -0.318895
 H        -0.169210        -0.846948         0.866315
 H        -0.568188         0.612888        -0.123464
 H        -0.047162        -0.961328        -0.967741
 H         1.851086         1.769415         1.255905
 H         1.415787         0.391816         2.404929
 H         4.134135         0.314422         2.178597
 H         5.024903         0.889076        -0.217080
 H         3.446553         2.185897        -1.491391
 H         3.460301         0.434932        -1.967708
 H         4.171909        -1.549189         0.368734
