19
Iteration:  3480charge 0 multiplicity 1
 C        -0.002177        -0.211480        -0.038525
 C         1.476258         0.035655        -0.056642
 C         2.042698         0.755596         1.288093
 C         3.384745         0.377262         1.314344
 C         4.089633         0.546764        -0.144416
 C         3.104495         1.556248        -0.895699
 O         1.805163         0.907390        -1.080590
 C         3.487698        -0.749168         0.256403
 O         2.245889        -1.152882        -0.234518
 H        -0.234355        -1.076586         0.655443
 H        -0.571802         0.648980         0.227463
 H        -0.270344        -0.568329        -0.980114
 H         1.756160         1.847258         1.138046
 H         1.528082         0.264765         2.096145
 H         4.008922         0.468407         2.173964
 H         5.121264         0.646337        -0.321575
 H         2.930361         2.439623        -0.483138
 H         3.548761         1.710213        -1.863984
 H         4.174045        -1.566413         0.259074
