19
Iteration:  1776
 C         0.108888        -0.286536        -0.015911
 C         1.484210         0.168334         0.008653
 C         1.963820         0.663658         1.528692
 C         3.443673         0.374278         1.342619
 C         3.979144         0.705150        -0.081523
 C         3.050290         1.038600        -1.341953
 O         1.752789         1.194007        -0.957659
 C         3.597191        -0.712012         0.277454
 O         2.252818        -0.996035        -0.313683
 H         0.118124        -1.004836         0.742035
 H        -0.690447         0.382103         0.298554
 H        -0.170137        -0.827156        -0.983466
 H         1.746943         1.759253         1.490169
 H         1.227913         0.185249         2.281399
 H         4.208199         0.101004         2.175338
 H         5.071962         0.804977        -0.052294
 H         3.119000         1.995919        -1.854284
 H         3.339135         0.276219        -2.096899
 H         4.219055        -1.615054         0.271909
