19
Iteration:  1712
 C        -0.009909        -0.151166        -0.024552
 C         1.478324         0.017572         0.084530
 C         1.990610         0.654067         1.353213
 C         3.450047         0.448080         1.203229
 C         3.976501         0.614749        -0.217572
 C         3.091086         1.546414        -1.120005
 O         1.811806         0.909950        -1.177350
 C         3.564614        -0.768309         0.262880
 O         2.216783        -1.194438         0.006329
 H        -0.279811        -1.042009         0.520207
 H        -0.581169         0.798724         0.291368
 H        -0.045237        -0.477051        -1.123529
 H         1.873043         1.703170         1.572727
 H         1.676018         0.025487         2.240407
 H         4.219853         0.520586         2.040162
 H         5.081362         0.699592        -0.299519
 H         3.189429         2.549487        -0.610121
 H         3.432740         1.655651        -2.129426
 H         4.282819        -1.602507         0.278652
