19
Iteration:  3698
 C         0.013822        -0.121357        -0.145137
 C         1.477179         0.018210         0.030315
 C         1.954634         0.625219         1.341188
 C         3.394548         0.325560         1.280910
 C         4.026772         0.660105        -0.153750
 C         3.123591         1.491704        -1.023038
 O         1.784473         0.950279        -1.024252
 C         3.533595        -0.742727         0.248872
 O         2.312125        -1.174995        -0.169926
 H        -0.267985        -0.461128         0.873637
 H        -0.388975         0.868383        -0.081754
 H        -0.290676        -0.705543        -0.965064
 H         1.743258         1.740768         1.492568
 H         1.405868         0.187189         2.125862
 H         4.121406         0.437176         2.124945
 H         5.028041         0.820282        -0.259359
 H         3.051236         2.513622        -0.807905
 H         3.500159         1.474114        -2.049825
 H         4.071312        -1.744954         0.246902
