19
Iteration:  1798
 C        -0.041210        -0.274556         0.009434
 C         1.403297         0.100496         0.060929
 C         1.962801         0.567453         1.367621
 C         3.437388         0.473455         1.200773
 C         4.033496         0.650573        -0.217823
 C         3.195898         1.131895        -1.241221
 O         1.717224         1.191656        -0.897414
 C         3.580000        -0.765290         0.348879
 O         2.344107        -0.985820        -0.233506
 H        -0.343558        -0.780916         0.864515
 H        -0.695311         0.616632        -0.030258
 H        -0.265280        -0.822130        -0.957218
 H         1.556528         1.517614         1.770554
 H         1.573778        -0.240718         2.122095
 H         4.216041         0.718288         2.014383
 H         5.102966         0.871687        -0.109931
 H         3.401264         2.129912        -1.663656
 H         3.345026         0.456423        -2.135378
 H         4.075644        -1.730234         0.425766
