19
Iteration:   194
 C         0.027533        -0.241398        -0.036811
 C         1.375288         0.114219         0.056293
 C         1.947952         0.627772         1.319747
 C         3.447877         0.436945         1.209170
 C         4.120142         0.632607        -0.220950
 C         3.227272         1.498030        -1.142994
 O         1.795272         0.906467        -1.070693
 C         3.533356        -0.708868         0.226124
 O         2.203956        -1.143367         0.023545
 H        -0.334844        -1.074422         0.552577
 H        -0.658177         0.611714         0.316059
 H        -0.265187        -0.492669        -1.112132
 H         1.557521         1.630366         1.634752
 H         1.532746        -0.057752         1.996588
 H         4.016351         0.323700         2.162961
 H         5.207249         0.629157        -0.375610
 H         2.990170         2.565443        -0.901751
 H         3.365488         1.542724        -2.236209
 H         4.257614        -1.577471         0.340130
