19
Iteration:  1559charge 0 multiplicity 1
 C        -0.026238        -0.262493        -0.004373
 C         1.472675         0.145291         0.033208
 C         1.881887         0.556839         1.452655
 C         3.385950         0.510197         1.239115
 C         3.991118         0.600772        -0.245428
 C         3.207879         1.179710        -1.353656
 O         1.822185         1.153113        -0.831327
 C         3.557997        -0.690219         0.321254
 O         2.305592        -1.070919        -0.198460
 H        -0.003562        -1.172243         0.629710
 H        -0.824667         0.429458         0.207492
 H        -0.040552        -0.616902        -1.092955
 H         1.369513         1.407362         1.699860
 H         1.484693        -0.298938         2.008368
 H         4.108161         0.837782         1.923312
 H         5.027179         0.814190        -0.407352
 H         3.353776         2.284259        -1.496163
 H         3.399591         0.664000        -2.316455
 H         4.234634        -1.509543         0.562320
