19
Iteration:  1602
 C         0.049798        -0.244325        -0.163687
 C         1.427441         0.149844         0.135605
 C         1.972832         0.661288         1.462037
 C         3.495300         0.415967         1.294147
 C         3.980322         0.676611        -0.091795
 C         3.042975         1.106978        -1.295531
 O         1.738134         1.054626        -0.865360
 C         3.602903        -0.712664         0.251732
 O         2.322719        -1.019773        -0.241361
 H        -0.381797        -1.072349         0.459264
 H        -0.593307         0.630279        -0.140296
 H        -0.144086        -0.434954        -1.297494
 H         1.855742         1.709749         1.411317
 H         1.509181         0.243996         2.375109
 H         4.188894         0.369876         2.074294
 H         5.014096         0.911541        -0.286955
 H         3.182973         2.182515        -1.611380
 H         3.089838         0.475201        -2.137973
 H         4.254330        -1.587042         0.309226
