19
Iteration:  1365
 C        -0.033188        -0.241080        -0.131759
 C         1.485120         0.090263         0.092405
 C         1.947779         0.636167         1.457907
 C         3.425978         0.386699         1.269091
 C         3.976392         0.672768        -0.146059
 C         3.129388         1.140352        -1.296162
 O         1.712528         1.125380        -0.911452
 C         3.616052        -0.704181         0.285209
 O         2.330401        -1.021661        -0.234606
 H        -0.120969        -0.997834         0.666280
 H        -0.550274         0.626635         0.150248
 H        -0.239255        -0.671541        -1.137124
 H         1.644004         1.673762         1.626069
 H         1.715712         0.045947         2.438792
 H         4.241445         0.401483         2.000151
 H         5.047661         0.963198        -0.083911
 H         3.274153         2.224353        -1.487005
 H         3.381517         0.559310        -2.193390
 H         4.152945        -1.623194         0.536725
