19
Iteration:  3498charge 0 multiplicity 1
 C        -0.032038        -0.344447        -0.100096
 C         1.429995         0.132115         0.020531
 C         1.919388         0.702195         1.346791
 C         3.545152         0.295046         1.232255
 C         3.988807         0.635735        -0.103548
 C         3.170507         1.470747        -1.047017
 O         1.810052         1.052908        -1.109673
 C         3.570280        -0.796836         0.261692
 O         2.195657        -1.092928        -0.134897
 H        -0.162035        -1.023119         0.722839
 H        -0.720019         0.514550        -0.000672
 H        -0.330874        -0.884217        -1.053818
 H         1.855999         1.771040         1.352475
 H         1.413038         0.233164         2.189224
 H         4.135651         0.240800         2.148019
 H         5.161664         0.651294        -0.094538
 H         3.241228         2.649412        -0.563077
 H         3.799475         1.593473        -1.990995
 H         4.212559        -1.615968         0.418121
