19
Iteration:  3285charge 0 multiplicity 1
 C         0.020531        -0.323195        -0.083239
 C         1.487332         0.172121         0.013441
 C         2.054029         0.722412         1.337525
 C         3.493512         0.269012         1.263827
 C         3.986212         0.620052        -0.129436
 C         3.142089         1.517467        -0.946397
 O         1.808188         0.922629        -1.134089
 C         3.518592        -0.743975         0.219304
 O         2.162946        -1.073677        -0.138577
 H        -0.107577        -1.352610         0.409877
 H        -0.800778         0.383007         0.207285
 H        -0.282265        -0.354234        -1.173560
 H         1.777921         1.885233         1.401946
 H         1.598067         0.215557         2.235428
 H         4.055935         0.262884         2.236779
 H         4.961286         0.862321        -0.268886
 H         2.868710         2.485617        -0.634289
 H         3.622282         1.517524        -1.928299
 H         4.148695        -1.672854         0.319654
