19
Iteration:  1556charge 0 multiplicity 1
 C         0.002684        -0.263351         0.001019
 C         1.472802         0.130889         0.052455
 C         1.893048         0.567558         1.449924
 C         3.359072         0.488359         1.243535
 C         4.007601         0.600137        -0.250004
 C         3.228549         1.196043        -1.341573
 O         1.817032         1.131868        -0.848650
 C         3.556070        -0.676277         0.327786
 O         2.279468        -1.058498        -0.206327
 H        -0.017089        -1.219763         0.625973
 H        -0.838247         0.405768         0.137631
 H        -0.078515        -0.616072        -1.057821
 H         1.291771         1.495963         1.728073
 H         1.567471        -0.286111         2.051774
 H         4.136540         0.865837         1.916114
 H         5.083703         0.848118        -0.442928
 H         3.368435         2.283330        -1.517524
 H         3.307178         0.701323        -2.283824
 H         4.205395        -1.537784         0.479506
