19
Iteration:   706charge 0 multiplicity 1
 C         0.050844        -0.259522        -0.100033
 C         1.480346         0.094629         0.014135
 C         1.927710         0.634175         1.397580
 C         3.479651         0.601913         1.153842
 C         4.087430         0.559016        -0.198307
 C         3.145594         1.182861        -1.242644
 O         1.706441         1.164378        -0.859416
 C         3.550186        -0.797846         0.357728
 O         2.228753        -1.106873        -0.170570
 H        -0.343995        -1.172115         0.529643
 H        -0.652499         0.601359         0.122670
 H        -0.223946        -0.603569        -1.105116
 H         1.649177         1.636648         1.525950
 H         1.762211        -0.071555         2.288018
 H         4.199749         0.834849         1.954866
 H         5.074893         0.949427        -0.227966
 H         3.389598         2.278153        -1.335639
 H         3.228998         0.662321        -2.129689
 H         4.096629        -1.587852         0.819182
