19
Iteration:  1266
 C        -0.040007        -0.186075        -0.033362
 C         1.489215         0.017822         0.090761
 C         2.004560         0.766661         1.247006
 C         3.439827         0.389012         1.289314
 C         4.008600         0.503366        -0.205014
 C         3.117263         1.490455        -1.004083
 O         1.724124         0.923231        -1.047853
 C         3.566165        -0.754487         0.246006
 O         2.308480        -1.172581        -0.183945
 H        -0.331212        -1.045507         0.619574
 H        -0.552570         0.734453         0.185070
 H        -0.216898        -0.506550        -1.066442
 H         1.894291         1.802966         1.044143
 H         1.368607         0.752962         2.230332
 H         4.131506         0.530497         2.123764
 H         5.071323         0.793530        -0.254301
 H         3.126309         2.574192        -0.511026
 H         3.329509         1.585711        -2.056311
 H         4.435974        -1.344342         0.371447
