19
Iteration:   897charge 0 multiplicity 1
 C         0.012630        -0.197449        -0.059160
 C         1.457845         0.120941         0.000768
 C         1.973454         0.657177         1.462391
 C         3.494212         0.493339         1.224259
 C         3.977246         0.566760        -0.152456
 C         3.122874         1.309049        -1.251820
 O         1.768070         0.979501        -0.985790
 C         3.544888        -0.746062         0.300001
 O         2.260815        -1.101230        -0.155645
 H        -0.113321        -1.051040         0.524498
 H        -0.520146         0.716623         0.309163
 H        -0.278877        -0.446296        -1.048649
 H         1.634447         1.784244         1.686646
 H         1.591932        -0.080996         2.203837
 H         4.106371         0.520427         2.130279
 H         5.017989         0.755408        -0.155601
 H         3.248322         2.433539        -1.163703
 H         3.327012         0.965797        -2.250869
 H         4.331624        -1.471508         0.287075
