19
Iteration:   110
 C         0.006166        -0.310884        -0.017486
 C         1.484728         0.142036         0.099940
 C         1.929619         0.612321         1.451968
 C         3.476286         0.448120         1.245817
 C         4.029610         0.643443        -0.239941
 C         3.220090         1.440897        -1.262375
 O         1.813855         1.019065        -1.074210
 C         3.461244        -0.685323         0.281380
 O         2.193583        -1.158396        -0.109090
 H        -0.293379        -0.934227         0.756212
 H        -0.662301         0.471671        -0.155681
 H        -0.035029        -0.788876        -0.952635
 H         1.527140         1.661664         1.709912
 H         1.804893        -0.116394         2.284440
 H         3.938000         0.385884         2.279970
 H         5.155900         0.585771        -0.216540
 H         3.291868         2.501506        -1.127725
 H         3.537926         1.172068        -2.335641
 H         4.127701        -1.568443         0.524057
