19
Iteration:   728charge 0 multiplicity 1
 C         0.002128        -0.280506        -0.019166
 C         1.437542         0.109233         0.052907
 C         1.876748         0.718160         1.409724
 C         3.432407         0.391999         1.324274
 C         3.993947         0.611128        -0.179471
 C         3.149996         1.140707        -1.357969
 O         1.793077         1.129220        -0.919677
 C         3.569750        -0.718500         0.340457
 O         2.333567        -1.010202        -0.233667
 H        -0.163587        -1.245621         0.636688
 H        -0.713956         0.476817         0.381782
 H        -0.379025        -0.575454        -1.010504
 H         1.685234         1.776105         1.352343
 H         1.637770         0.229111         2.391584
 H         4.093602         0.483669         2.200743
 H         5.038476         0.745593        -0.375897
 H         3.540609         2.185863        -1.499488
 H         3.271130         0.544924        -2.210665
 H         4.220771        -1.557297         0.287790
