19
Iteration:   118charge 0 multiplicity 1
 C        -0.052060        -0.313140         0.014022
 C         1.412379         0.097943         0.030388
 C         2.008842         0.699291         1.475990
 C         3.450149         0.455654         1.272941
 C         3.997747         0.618393        -0.162995
 C         3.257206         1.475381        -1.227866
 O         1.819830         1.034075        -1.086997
 C         3.470036        -0.744535         0.290700
 O         2.248023        -1.187845        -0.171426
 H        -0.156678        -0.950997         0.873272
 H        -0.867451         0.454537        -0.056386
 H        -0.219266        -0.998319        -0.850405
 H         1.576940         1.811546         1.424864
 H         1.625511         0.046116         2.228712
 H         4.187240         0.494696         2.059010
 H         5.057626         0.565968        -0.309307
 H         3.269314         2.559816        -1.124519
 H         3.520950         1.190970        -2.284510
 H         4.195551        -1.555173         0.402792
