19
Iteration:  2240
 C        -0.017611        -0.224865         0.023037
 C         1.485429         0.109222         0.029998
 C         1.970436         0.689489         1.390334
 C         3.484940         0.434674         1.229804
 C         4.016184         0.618106        -0.206699
 C         3.185829         1.447250        -1.099728
 O         1.823532         0.939055        -1.094572
 C         3.506199        -0.747264         0.176798
 O         2.190838        -1.181479        -0.077177
 H        -0.223001        -0.995031         0.763201
 H        -0.660970         0.682489         0.172559
 H        -0.420939        -0.666713        -1.000428
 H         1.547195         1.751019         1.505675
 H         1.602812         0.013757         2.218030
 H         4.127703         0.720190         2.003349
 H         5.098933         0.644379        -0.293718
 H         3.146062         2.513655        -0.782402
 H         3.641764         1.540413        -2.129931
 H         4.141142        -1.626091         0.314471
