19
Iteration:  3618charge 0 multiplicity 1
 C        -0.031332        -0.313492        -0.158473
 C         1.399513         0.110583         0.016772
 C         1.998183         0.708716         1.293395
 C         3.428877         0.392124         1.324696
 C         4.061546         0.604359        -0.116775
 C         3.197268         1.402652        -1.089384
 O         1.755269         1.088547        -0.960805
 C         3.541018        -0.796324         0.278752
 O         2.265153        -1.117053        -0.190179
 H        -0.272702        -1.274070         0.429981
 H        -0.490523         0.603486         0.270606
 H        -0.422890        -0.554725        -1.169463
 H         1.835230         1.826243         1.264996
 H         1.549789         0.150264         2.213303
 H         4.044580         0.291906         2.171119
 H         5.186742         0.761754        -0.157628
 H         3.254515         2.440981        -0.881405
 H         3.454105         1.136176        -2.138843
 H         4.198764        -1.601908         0.373707
