19
Iteration:  4406
 C        -0.002729        -0.142043        -0.172931
 C         1.494762         0.013048        -0.001604
 C         1.913789         0.543000         1.469856
 C         3.451017         0.401456         1.280672
 C         3.960940         0.620375        -0.162462
 C         3.115463         1.405290        -1.148444
 O         1.748457         1.075275        -0.915997
 C         3.621627        -0.715833         0.237278
 O         2.326397        -1.167307        -0.179931
 H        -0.480998        -0.683262         0.679632
 H        -0.365530         0.864794        -0.446433
 H        -0.292405        -0.711595        -1.042794
 H         1.699597         1.646295         1.630818
 H         1.437786         0.038694         2.291610
 H         4.025858         0.372322         2.156711
 H         5.116573         0.960757        -0.347874
 H         3.266014         2.456620        -1.182515
 H         3.251971         1.105803        -2.244133
 H         4.293788        -1.460630         0.562914
