19
Iteration:  4883
 C        -0.117678        -0.158848        -0.054001
 C         1.448075         0.033021        -0.026909
 C         2.014661         0.603012         1.281046
 C         3.546188         0.344984         1.183095
 C         4.063131         0.642375        -0.168493
 C         3.112471         1.571504        -0.894273
 O         1.797956         0.920161        -1.103935
 C         3.554369        -0.772219         0.285273
 O         2.206350        -1.156975        -0.126200
 H        -0.347678        -1.057084         0.462039
 H        -0.591668         0.778480         0.313751
 H        -0.226918        -0.427266        -1.172168
 H         1.695939         1.719646         1.307699
 H         1.807361         0.002766         2.133672
 H         4.161332         0.447865         2.100506
 H         5.115860         0.881881        -0.187011
 H         2.926649         2.532218        -0.244237
 H         3.526350         1.952481        -1.881286
 H         4.214657        -1.593842         0.123514
