19
Iteration:  3467charge 0 multiplicity 1
 C         0.033758        -0.127342        -0.027648
 C         1.508214         0.047124         0.023813
 C         1.925174         0.735726         1.224729
 C         3.481618         0.338004         1.222051
 C         3.993946         0.627011        -0.082220
 C         3.056280         1.503241        -0.881708
 O         1.794975         0.864876        -1.140718
 C         3.574365        -0.807014         0.250260
 O         2.270549        -1.162767        -0.231005
 H        -0.299230        -0.943239         0.602347
 H        -0.367330         0.786227         0.388841
 H        -0.303423        -0.190969        -1.059435
 H         1.709898         1.818367         1.254233
 H         1.456843         0.432416         2.110734
 H         3.995380         0.351757         2.177578
 H         5.148683         0.704353        -0.100706
 H         2.919374         2.346295        -0.229067
 H         3.396374         1.863959        -1.860845
 H         4.223891        -1.593149         0.448151
