19
Iteration:  4289
 C         0.035526        -0.160503        -0.091574
 C         1.486034         0.114346        -0.012074
 C         1.943184         0.566115         1.392679
 C         3.456361         0.432076         1.244866
 C         3.944401         0.658382        -0.104035
 C         3.161281         1.503668        -1.040176
 O         1.833729         0.877449        -1.107537
 C         3.545280        -0.689310         0.177549
 O         2.213289        -1.183225        -0.083089
 H        -0.201378        -0.964550         0.693654
 H        -0.558651         0.804836         0.132055
 H        -0.232114        -0.382265        -1.142759
 H         1.609549         1.566172         1.696704
 H         1.491577        -0.212489         2.090925
 H         4.135808         0.306559         2.034608
 H         5.058213         0.610994        -0.261912
 H         2.839570         2.544004        -0.576720
 H         3.741361         1.599118        -2.005553
 H         4.305633        -1.458414         0.127127
