19
Iteration:  2816charge 0 multiplicity 1
 C         0.084272        -0.340249        -0.079646
 C         1.451997         0.182897        -0.015767
 C         1.982297         0.618469         1.386589
 C         3.459992         0.345190         1.267405
 C         4.041464         0.625799        -0.076992
 C         3.181131         1.374648        -1.139268
 O         1.693747         1.114235        -1.038256
 C         3.583475        -0.745285         0.245277
 O         2.179245        -1.078908        -0.162263
 H        -0.409021        -0.795539         0.853138
 H        -0.534399         0.557251        -0.252290
 H        -0.151214        -0.999624        -0.926663
 H         1.785125         1.773324         1.594920
 H         1.508754         0.077583         2.271773
 H         4.051472         0.245198         2.148801
 H         5.140724         0.627103        -0.125445
 H         3.329204         2.412142        -1.076302
 H         3.633034         1.120084        -2.148728
 H         4.065363        -1.688843         0.363306
