19
Iteration:   195charge 0 multiplicity 1
 C         0.023375        -0.243731        -0.042178
 C         1.367446         0.116004         0.054768
 C         1.952175         0.627391         1.325890
 C         3.443077         0.432093         1.211141
 C         4.127036         0.634329        -0.229196
 C         3.225685         1.502601        -1.151049
 O         1.796378         0.906970        -1.064337
 C         3.528255        -0.707406         0.235837
 O         2.207567        -1.148846         0.021801
 H        -0.317069        -1.051843         0.540871
 H        -0.611273         0.599617         0.307308
 H        -0.241830        -0.470479        -1.096437
 H         1.531741         1.646371         1.664263
 H         1.531443        -0.045079         1.996114
 H         4.013964         0.312374         2.174080
 H         5.230076         0.629356        -0.393833
 H         2.998182         2.552280        -0.905299
 H         3.349394         1.550128        -2.271037
 H         4.256838        -1.566478         0.352064
