19
Iteration:   460charge 0 multiplicity 1
 C        -0.013735        -0.261535        -0.165137
 C         1.463029         0.047772         0.067996
 C         1.915699         0.594833         1.404768
 C         3.454748         0.516756         1.218292
 C         4.008102         0.581756        -0.233846
 C         3.166472         1.314187        -1.184852
 O         1.787131         1.139336        -0.984981
 C         3.573841        -0.709468         0.222895
 O         2.272619        -1.132546         0.003082
 H        -0.402783        -0.771194         0.800012
 H        -0.626127         0.643343        -0.172294
 H        -0.354513        -0.934189        -0.965215
 H         1.413172         1.594057         1.509241
 H         1.756512         0.061624         2.252615
 H         4.223251         0.531969         2.008205
 H         5.073442         0.507734        -0.256117
 H         3.307188         2.386080        -1.042341
 H         3.372591         1.079872        -2.152193
 H         4.271356        -1.589707         0.318537
