19
Iteration:    39charge 0 multiplicity 1
 C         0.002843        -0.309838         0.033943
 C         1.443443         0.221833         0.019012
 C         1.928624         0.665230         1.375577
 C         3.411113         0.479146         1.258150
 C         3.945772         0.593192        -0.118889
 C         3.222724         1.220564        -1.174810
 O         1.790327         1.060629        -1.045084
 C         3.596526        -0.761319         0.250537
 O         2.261584        -1.060897        -0.191268
 H         0.022383        -1.200486         0.837779
 H        -0.826342         0.435607         0.297444
 H        -0.282339        -0.681156        -1.001308
 H         1.681015         1.769055         1.540145
 H         1.514388        -0.086826         2.081985
 H         4.036809         0.790141         2.106934
 H         5.033715         0.807473        -0.098093
 H         3.412354         2.335775        -1.202481
 H         3.508999         0.787997        -2.156971
 H         4.261414        -1.627988         0.199497
