19
Iteration:  2987
 C        -0.057919        -0.177315        -0.163102
 C         1.480402         0.017286        -0.022900
 C         1.951163         0.541518         1.488409
 C         3.426103         0.365251         1.301758
 C         3.997391         0.656558        -0.103512
 C         3.114523         1.206612        -1.254734
 O         1.752627         1.199046        -0.877698
 C         3.590217        -0.713751         0.286667
 O         2.350946        -1.046400        -0.241596
 H        -0.540875        -0.839783         0.630028
 H        -0.642195         0.714254        -0.184432
 H        -0.272469        -0.676021        -1.095777
 H         1.750575         1.568663         1.762402
 H         1.664196        -0.190283         2.255684
 H         4.244236         0.615346         1.992243
 H         5.034215         1.079722        -0.217601
 H         3.272260         2.253155        -1.520466
 H         3.368843         0.466175        -2.061451
 H         4.249414        -1.554936         0.508091
