19
Iteration:   814
 C        -0.050855        -0.246637        -0.118780
 C         1.462832         0.104912         0.002508
 C         2.043481         0.744952         1.326461
 C         3.608415         0.395861         1.289674
 C         3.996898         0.557520        -0.188065
 C         3.098576         1.445290        -1.065643
 O         1.759360         0.925517        -1.082619
 C         3.523224        -0.737376         0.189587
 O         2.196757        -1.143965         0.022036
 H        -0.279699        -0.747130         0.921262
 H        -0.615866         0.697923        -0.226504
 H        -0.158112        -0.814711        -1.068757
 H         1.849739         1.715756         1.483385
 H         1.613747         0.257725         2.192993
 H         4.254683         0.656874         2.162386
 H         5.064771         0.672860        -0.400994
 H         3.071568         2.561750        -0.844144
 H         3.287379         1.498986        -2.197055
 H         4.227482        -1.562669         0.268224
