19
Iteration:  3464
 C         0.025627        -0.123868        -0.025111
 C         1.496275         0.052908         0.000494
 C         1.925780         0.717649         1.243893
 C         3.477323         0.331354         1.235634
 C         3.986604         0.648175        -0.082625
 C         3.065464         1.486628        -0.895024
 O         1.805766         0.871132        -1.159500
 C         3.577474        -0.813861         0.254179
 O         2.275574        -1.165375        -0.212515
 H        -0.343737        -0.917972         0.582068
 H        -0.351917         0.822857         0.444000
 H        -0.326282        -0.165468        -1.115883
 H         1.746370         1.762404         1.237594
 H         1.420262         0.447112         2.192492
 H         4.073084         0.312198         2.173473
 H         5.150662         0.862254        -0.186694
 H         2.934762         2.438921        -0.102879
 H         3.280966         1.849788        -1.948841
 H         4.269370        -1.682300         0.435368
