19
Iteration:  3695charge 0 multiplicity 1
 C        -0.005063        -0.093516        -0.133937
 C         1.493654        -0.006457         0.012299
 C         1.976654         0.633686         1.338842
 C         3.409548         0.334497         1.283617
 C         3.994146         0.660573        -0.149047
 C         3.135043         1.509268        -1.025682
 O         1.796142         0.926452        -1.040058
 C         3.533347        -0.748342         0.233221
 O         2.293549        -1.181183        -0.162850
 H        -0.410915        -0.549952         0.933974
 H        -0.428057         0.928660        -0.107484
 H        -0.249852        -0.755193        -0.969167
 H         1.812405         1.771030         1.535247
 H         1.358838         0.115755         2.167788
 H         4.081484         0.488213         2.133491
 H         5.054559         0.792341        -0.160956
 H         2.917483         2.579439        -0.664841
 H         3.566587         1.532432        -2.046702
 H         4.223620        -1.689588         0.256118
