19
Iteration:  1481
 C        -0.024470        -0.237179         0.028398
 C         1.398753         0.115235         0.008354
 C         2.001570         0.699046         1.322347
 C         3.500572         0.465025         1.185281
 C         4.039263         0.586054        -0.246780
 C         3.110359         1.526467        -0.967968
 O         1.903029         0.826846        -1.147304
 C         3.504452        -0.719935         0.257542
 O         2.184427        -1.173999        -0.102095
 H        -0.184456        -0.819505         1.009459
 H        -0.640130         0.685404        -0.013789
 H        -0.381569        -0.914850        -0.781211
 H         1.707773         1.705601         1.615146
 H         1.567384         0.046052         2.078471
 H         4.080200         0.620422         2.124075
 H         5.141404         0.793287        -0.381341
 H         2.865292         2.528266        -0.450708
 H         3.572358         1.744642        -1.954942
 H         4.314745        -1.437002         0.238292
