19
Iteration:  3095charge 0 multiplicity 1
 C        -0.116144        -0.149046        -0.077594
 C         1.485207         0.052031         0.016112
 C         1.923014         0.577840         1.343329
 C         3.452985         0.412696         1.233855
 C         4.067937         0.627760        -0.108158
 C         3.152574         1.446488        -1.034033
 O         1.741753         0.962344        -1.077621
 C         3.612869        -0.732904         0.248213
 O         2.289602        -1.142729        -0.177929
 H        -0.314239        -0.983645         0.621324
 H        -0.447648         0.789082         0.331659
 H        -0.438524        -0.214384        -1.114105
 H         1.671547         1.624397         1.487678
 H         1.500610        -0.093530         2.190994
 H         4.058181         0.206190         2.151666
 H         5.196861         0.976447        -0.183439
 H         3.067521         2.458617        -0.724866
 H         3.672260         1.436992        -2.032962
 H         4.395653        -1.513616         0.441429
