19
Iteration:  3906
 C        -0.035428        -0.147465        -0.155031
 C         1.397405         0.060413         0.032042
 C         1.950167         0.535472         1.430997
 C         3.459553         0.374740         1.250691
 C         3.994909         0.672539        -0.104648
 C         3.206610         1.392487        -1.095441
 O         1.779675         1.021432        -1.068378
 C         3.585874        -0.741271         0.213674
 O         2.261544        -1.112501        -0.100379
 H        -0.419479        -0.783231         0.569033
 H        -0.579021         0.807160        -0.021887
 H        -0.202355        -0.671104        -1.193807
 H         1.485440         1.563912         1.716747
 H         1.668913        -0.206505         2.194604
 H         4.154352         0.350539         2.098664
 H         5.043232         0.973251        -0.233374
 H         3.274122         2.509634        -1.040411
 H         3.588008         1.230975        -2.115314
 H         4.423026        -1.457803         0.406567
