19
Iteration:  3589
 C         0.087464        -0.267934        -0.147120
 C         1.452224         0.104122         0.071377
 C         1.945997         0.495474         1.476831
 C         3.372010         0.422784         1.331203
 C         3.985650         0.683804        -0.061408
 C         3.230251         1.140948        -1.286358
 O         1.742555         1.198983        -0.966872
 C         3.535869        -0.728657         0.326152
 O         2.241888        -0.992358        -0.281695
 H        -0.189450        -1.150685         0.470335
 H        -0.426209         0.628567         0.122459
 H        -0.166653        -0.393437        -1.156880
 H         1.619837         1.518735         1.758653
 H         1.588043        -0.172916         2.166634
 H         4.194207         0.511079         2.088485
 H         4.975149         0.916910         0.005591
 H         3.406123         2.299305        -1.648057
 H         3.455946         0.581070        -2.203975
 H         4.280220        -1.615592         0.395331
