19
Iteration:  2180charge 0 multiplicity 1
 C         0.051051        -0.275613        -0.130946
 C         1.474857         0.152709         0.134186
 C         1.999300         0.613726         1.464741
 C         3.442793         0.313537         1.257244
 C         4.040257         0.756245        -0.090489
 C         3.098774         1.051519        -1.291560
 O         1.754717         1.119887        -0.912492
 C         3.534878        -0.669048         0.181988
 O         2.220201        -0.942085        -0.179629
 H        -0.453414        -0.690029         0.830408
 H        -0.603756         0.553743        -0.486143
 H         0.225924        -1.094448        -0.859012
 H         1.777476         1.598073         1.710175
 H         1.635287        -0.031197         2.254616
 H         4.184343         0.407897         2.154535
 H         5.098801         0.918340        -0.398189
 H         3.314331         2.074426        -1.668226
 H         3.186689         0.273296        -2.060216
 H         4.136108        -1.532192         0.247883
