19
Iteration:  1707
 C         0.007783        -0.122090        -0.042960
 C         1.468228         0.038925         0.067976
 C         1.986420         0.680178         1.381277
 C         3.515305         0.400847         1.203657
 C         3.983478         0.641405        -0.183297
 C         3.096541         1.537023        -1.078553
 O         1.792478         0.889349        -1.211260
 C         3.575085        -0.775811         0.218772
 O         2.218193        -1.213404         0.029688
 H        -0.305048        -1.000570         0.577241
 H        -0.606489         0.669811         0.243132
 H        -0.141862        -0.512038        -1.021099
 H         1.704456         1.779159         1.501537
 H         1.612288         0.108147         2.223669
 H         4.109417         0.474538         2.059997
 H         5.022129         0.904387        -0.328713
 H         3.049875         2.560269        -0.674632
 H         3.394124         1.670009        -2.167010
 H         4.203458        -1.660071         0.234620
