19
Iteration:   229charge 0 multiplicity 1
 C         0.007008        -0.251855        -0.135380
 C         1.464307         0.078356         0.075360
 C         2.016019         0.674704         1.324814
 C         3.497149         0.459304         1.272900
 C         3.974196         0.610073        -0.105170
 C         3.097739         1.279125        -1.124643
 O         1.657954         1.022652        -1.006769
 C         3.597914        -0.789147         0.252395
 O         2.264680        -1.061803        -0.122625
 H        -0.284672        -1.075567         0.436587
 H        -0.351650         0.719885         0.063243
 H         0.039852        -0.304083        -1.188943
 H         1.686796         1.799737         1.302522
 H         1.677270         0.253519         2.208755
 H         4.150082         0.751392         2.115954
 H         5.086159         0.756791        -0.190247
 H         3.388023         2.312366        -0.909794
 H         3.505078         0.923543        -2.129523
 H         4.286750        -1.615847         0.190542
