19
Iteration:   738charge 0 multiplicity 1
 C        -0.040560        -0.307986        -0.019991
 C         1.500275         0.134702        -0.012495
 C         1.946301         0.695363         1.434499
 C         3.461232         0.352897         1.340594
 C         4.066954         0.703726        -0.141225
 C         3.176280         1.132019        -1.320708
 O         1.743765         1.114704        -0.973986
 C         3.565599        -0.724383         0.301594
 O         2.235392        -1.016970        -0.202637
 H        -0.045019        -1.238058         0.702685
 H        -0.637827         0.536388         0.464480
 H        -0.422245        -0.587491        -1.019308
 H         1.888685         1.725377         1.443306
 H         1.246483         0.344552         2.244111
 H         4.177741         0.418347         2.176050
 H         5.092505         0.969853        -0.129976
 H         3.174619         2.160549        -1.775605
 H         3.340290         0.463478        -2.137198
 H         4.212069        -1.559655         0.418172
