19
Iteration:  4647charge 0 multiplicity 1
 C        -0.036694        -0.136426        -0.119207
 C         1.473774         0.065031        -0.030499
 C         1.995773         0.618463         1.357197
 C         3.520764         0.416410         1.228856
 C         4.047175         0.628941        -0.139895
 C         3.120087         1.558665        -0.946295
 O         1.740277         0.929538        -1.074116
 C         3.554865        -0.811442         0.216118
 O         2.263399        -1.214651        -0.112940
 H        -0.486405        -0.903959         0.338646
 H        -0.491266         0.765347         0.243612
 H        -0.400525        -0.346947        -1.168418
 H         1.819583         1.664247         1.430057
 H         1.576330         0.085388         2.192146
 H         4.022632         0.590769         2.217900
 H         5.086147         0.786705        -0.318278
 H         2.806069         2.439485        -0.423985
 H         3.444687         1.662524        -1.954574
 H         4.264888        -1.643148         0.185799
