19
Iteration:  1567charge 0 multiplicity 1
 C        -0.042976        -0.277968        -0.079365
 C         1.447192         0.161251         0.032164
 C         1.878914         0.498164         1.418013
 C         3.468631         0.569190         1.207671
 C         3.966504         0.619068        -0.200371
 C         3.104340         1.138795        -1.355296
 O         1.815997         1.239359        -0.850274
 C         3.597966        -0.732603         0.314847
 O         2.353051        -1.105816        -0.172447
 H        -0.209431        -1.115488         0.703015
 H        -0.588648         0.551245         0.355599
 H        -0.370051        -0.626573        -1.112950
 H         1.531227         1.562852         1.746564
 H         1.521143        -0.223874         2.174041
 H         4.073555         0.628213         2.133676
 H         5.077335         0.742874        -0.083752
 H         3.444467         2.194018        -1.498432
 H         3.314497         0.582156        -2.233915
 H         4.263686        -1.506087         0.674667
