19
Iteration:  3240
 C        -0.004057        -0.176345        -0.060667
 C         1.428135         0.037127         0.054411
 C         1.988693         0.651883         1.309920
 C         3.423423         0.385730         1.212812
 C         3.992646         0.623637        -0.146677
 C         3.104754         1.453786        -0.957017
 O         1.839018         0.961602        -1.029730
 C         3.585931        -0.725672         0.245701
 O         2.274495        -1.162088        -0.225270
 H        -0.270625        -0.970118         0.652352
 H        -0.567817         0.792928         0.074045
 H        -0.167811        -0.474577        -1.178947
 H         1.750991         1.830216         1.274060
 H         1.343145         0.182062         2.067237
 H         3.992528         0.434944         2.114776
 H         5.049163         0.698279        -0.218590
 H         3.180544         2.392072        -0.457605
 H         3.301382         1.595564        -2.017276
 H         4.148657        -1.657832         0.412582
