19
Iteration:  1904charge 0 multiplicity 1
 C         0.029679        -0.181596         0.137648
 C         1.462563         0.097433        -0.041737
 C         1.949506         0.749980         1.279013
 C         3.380406         0.335374         1.242716
 C         4.016139         0.618209        -0.188896
 C         3.190353         1.464177        -1.110955
 O         1.738471         0.989553        -1.084838
 C         3.566680        -0.754880         0.279913
 O         2.297257        -1.239862        -0.139665
 H        -0.078738        -1.082707         0.722801
 H        -0.385613         0.707059         0.579383
 H        -0.526069        -0.330340        -0.882016
 H         1.705246         1.836708         1.122676
 H         1.426802         0.348674         2.071004
 H         4.089776         0.262600         2.151048
 H         5.126510         0.653934        -0.165291
 H         3.126315         2.522425        -0.805963
 H         3.374151         1.347342        -2.191153
 H         4.233231        -1.587310         0.360345
