19
Iteration:  4399charge 0 multiplicity 1
 C         0.042605        -0.133843        -0.134780
 C         1.501454         0.017004         0.017176
 C         1.952124         0.484549         1.437401
 C         3.370911         0.461248         1.254539
 C         3.999438         0.643441        -0.204358
 C         3.159654         1.331874        -1.183275
 O         1.743271         1.103864        -0.880948
 C         3.546659        -0.730012         0.288470
 O         2.336415        -1.132756        -0.212068
 H        -0.520764        -0.555355         0.655223
 H        -0.517922         0.837628        -0.274419
 H        -0.099348        -0.727990        -1.102329
 H         1.525949         1.437817         1.553172
 H         1.636087        -0.251855         2.270676
 H         3.984201         0.580520         2.165873
 H         4.912905         0.995988        -0.142666
 H         3.130809         2.481400        -1.133406
 H         3.393472         0.972799        -2.173791
 H         4.216343        -1.575318         0.517410
