19
Iteration:  4953
 C        -0.089555        -0.271642        -0.069288
 C         1.472810         0.110103        -0.037449
 C         1.918237         0.481613         1.432057
 C         3.427080         0.473566         1.267809
 C         4.093521         0.663235        -0.126005
 C         3.200900         1.208346        -1.178776
 O         1.753717         1.240310        -0.815995
 C         3.566230        -0.754895         0.269265
 O         2.304330        -1.050150        -0.325696
 H        -0.370065        -0.957444         0.834836
 H        -0.632070         0.656172        -0.100309
 H        -0.313687        -0.961247        -0.882745
 H         1.598868         1.469322         1.568816
 H         1.562928        -0.226190         2.187241
 H         4.023972         0.478895         2.177400
 H         5.126191         0.849440        -0.387564
 H         3.448488         2.277066        -1.302414
 H         3.231528         0.775004        -2.176476
 H         4.133924        -1.689049         0.207229
