19
Iteration:  3870charge 0 multiplicity 1
 C        -0.003632        -0.313005        -0.051080
 C         1.507120         0.048353         0.028581
 C         1.984159         0.794780         1.358772
 C         3.461241         0.328594         1.232575
 C         4.021953         0.578353        -0.138943
 C         3.120375         1.534221        -0.916653
 O         1.813704         0.984855        -1.170137
 C         3.481583        -0.778071         0.271122
 O         2.233516        -1.117180        -0.214380
 H        -0.374652        -0.876395         0.874127
 H        -0.516688         0.595548        -0.341861
 H        -0.115444        -0.960545        -0.909226
 H         2.075397         1.870694         1.228871
 H         1.327315         0.600625         2.234808
 H         4.109696         0.052620         2.068815
 H         4.984931         0.612126        -0.227525
 H         3.195508         2.422058        -0.180760
 H         3.383294         1.718217        -1.919053
 H         4.108305        -1.615063         0.450169
