19
Iteration:  2866charge 0 multiplicity 1
 C        -0.001504        -0.068015        -0.051670
 C         1.576918         0.017842        -0.052817
 C         1.995457         0.643312         1.294487
 C         3.473407         0.317732         1.232275
 C         4.008373         0.705759        -0.132200
 C         3.028369         1.546085        -0.895681
 O         1.842375         0.844121        -1.187860
 C         3.555773        -0.732321         0.236313
 O         2.181919        -1.204062        -0.066608
 H        -0.304522        -0.600508         0.843892
 H        -0.576975         0.853966        -0.091070
 H        -0.445980        -0.670716        -0.797951
 H         1.741313         1.636507         1.351064
 H         1.532427         0.082667         2.067206
 H         4.160713         0.302088         2.082808
 H         5.070118         0.891030        -0.277995
 H         2.975025         2.493942        -0.378440
 H         3.441543         1.850261        -1.832327
 H         4.185345        -1.632473         0.077985
