19
Iteration:  2228
 C         0.061102        -0.247663        -0.011091
 C         1.474539         0.083710         0.011246
 C         1.936504         0.652978         1.293666
 C         3.448800         0.501894         1.163473
 C         4.020235         0.512639        -0.243263
 C         3.160995         1.424520        -1.105466
 O         1.769175         1.052373        -0.950818
 C         3.536014        -0.794514         0.293184
 O         2.216942        -1.123249        -0.093102
 H        -0.196920        -0.827381         0.874908
 H        -0.501876         0.717176         0.054003
 H        -0.078802        -0.868710        -1.071878
 H         1.676039         1.773434         1.396226
 H         1.453404         0.119779         2.157342
 H         4.087227         0.453037         1.978018
 H         5.077482         0.717634        -0.300126
 H         3.352323         2.459531        -0.750112
 H         3.212032         1.237510        -2.201406
 H         4.287447        -1.626597         0.294367
