19
Iteration:  1257
 C         0.070129        -0.183747         0.015749
 C         1.492953         0.035252         0.034682
 C         1.991581         0.759303         1.287137
 C         3.415686         0.405513         1.245542
 C         3.947408         0.584241        -0.239450
 C         3.075598         1.448522        -1.002978
 O         1.741653         0.899726        -1.037505
 C         3.569688        -0.762354         0.266494
 O         2.307713        -1.173126        -0.174669
 H        -0.576125        -0.988413         0.513248
 H        -0.316897         0.790614         0.161822
 H         0.010928        -0.157989        -1.148523
 H         1.767712         1.825098         0.985019
 H         1.532280         0.443195         2.283380
 H         4.123498         0.475732         2.092476
 H         5.043912         0.819239        -0.125904
 H         2.966182         2.501303        -0.595593
 H         3.636942         1.539251        -1.923270
 H         4.071396        -1.703038         0.411580
