19
Iteration:  2190
 C        -0.010229        -0.317152        -0.183932
 C         1.414286         0.189248         0.112495
 C         2.051996         0.689260         1.506826
 C         3.534832         0.364152         1.285839
 C         3.997665         0.660794        -0.144094
 C         3.123036         1.114615        -1.251554
 O         1.698022         1.121963        -0.889705
 C         3.587115        -0.718034         0.235606
 O         2.221418        -0.970463        -0.226409
 H        -0.414861        -0.761889         0.765109
 H        -0.727455         0.382208        -0.635069
 H         0.029770        -1.096807        -0.882434
 H         1.790497         1.697580         1.608034
 H         1.765711         0.153513         2.390128
 H         4.162136         0.265509         2.243833
 H         5.086425         0.840999        -0.163137
 H         3.335693         2.089988        -1.727160
 H         3.441915         0.386492        -1.995031
 H         4.235821        -1.536538         0.073175
