19
Iteration:  3221
 C        -0.056626        -0.178707        -0.135480
 C         1.467059         0.019693        -0.013976
 C         1.967505         0.597110         1.444498
 C         3.466739         0.360622         1.325589
 C         4.051517         0.694913        -0.090307
 C         3.177047         1.467352        -1.124695
 O         1.695878         0.989607        -1.029394
 C         3.575587        -0.786046         0.242291
 O         2.273173        -1.111324        -0.209477
 H        -0.496295        -0.739330         0.795269
 H        -0.377407         0.891094        -0.032613
 H        -0.249325        -0.598564        -1.169466
 H         1.716000         1.657678         1.638585
 H         1.599070        -0.088135         2.270317
 H         4.165319         0.333687         2.229118
 H         5.023475         0.980572        -0.311908
 H         3.271407         2.618405        -1.026087
 H         3.521384         1.061256        -2.120405
 H         4.338853        -1.647260         0.319679
