19
Iteration:  1403charge 0 multiplicity 1
 C        -0.031101        -0.345359        -0.076059
 C         1.397032         0.104159        -0.056928
 C         2.001675         0.641897         1.438673
 C         3.491931         0.460648         1.234345
 C         4.036596         0.603586        -0.117867
 C         3.171856         1.212957        -1.242183
 O         1.740702         1.172581        -0.951846
 C         3.551548        -0.722419         0.267761
 O         2.282201        -1.036892        -0.142413
 H        -0.097214        -1.213844         0.605739
 H        -0.837694         0.414067         0.316316
 H        -0.437356        -0.770045        -0.985230
 H         1.590579         1.655158         1.626692
 H         1.639568         0.058562         2.246009
 H         4.042334         0.472565         2.190314
 H         5.070328         0.735288        -0.389692
 H         3.454811         2.298528        -1.175142
 H         3.321052         0.855479        -2.262161
 H         4.260288        -1.507041         0.509502
