19
Iteration:  4417
 C        -0.052724        -0.212475        -0.221944
 C         1.451362         0.059105         0.065766
 C         1.944038         0.644163         1.409164
 C         3.502985         0.296903         1.305533
 C         4.000692         0.715581        -0.117421
 C         3.082397         1.430113        -1.120351
 O         1.736813         1.046888        -0.982186
 C         3.642018        -0.756210         0.246351
 O         2.292137        -1.162993        -0.154963
 H        -0.514154        -0.561517         0.729321
 H        -0.499114         0.811539        -0.218496
 H        -0.215640        -0.835073        -1.088242
 H         1.666882         1.742022         1.440947
 H         1.534676         0.075658         2.225821
 H         4.240776         0.339311         2.036982
 H         5.208068         0.704415        -0.284418
 H         3.199828         2.456031        -0.866963
 H         3.510936         1.158353        -2.141916
 H         4.359585        -1.537149         0.107876
