19
Iteration:  3252
 C        -0.027296        -0.271907        -0.054516
 C         1.512554         0.065955        -0.034032
 C         1.964963         0.710020         1.281193
 C         3.453679         0.347461         1.275748
 C         3.999484         0.558008        -0.183567
 C         3.151506         1.575100        -0.903017
 O         1.798519         0.967341        -1.114277
 C         3.531141        -0.807951         0.222509
 O         2.227310        -1.134319        -0.138519
 H        -0.369911        -1.152896         0.594763
 H        -0.581672         0.637274         0.317049
 H        -0.346280        -0.555592        -1.137612
 H         1.826417         1.885290         1.306302
 H         1.604043         0.334486         2.264373
 H         4.128342         0.433542         2.154372
 H         4.962614         0.844581        -0.397446
 H         3.122906         2.488906        -0.366849
 H         3.663709         1.800258        -1.839971
 H         4.349357        -1.548854         0.438106
