19
Iteration:  3357
 C         0.017068        -0.272912        -0.109523
 C         1.483666         0.142086         0.135855
 C         1.863291         0.535107         1.519506
 C         3.413277         0.304879         1.326324
 C         3.991587         0.672187        -0.104702
 C         3.188044         1.201616        -1.268751
 O         1.815248         1.154017        -0.920179
 C         3.532298        -0.669506         0.240795
 O         2.279854        -0.965552        -0.335993
 H        -0.371242        -0.846276         0.661084
 H        -0.744348         0.462388        -0.395628
 H         0.106898        -1.001184        -0.965483
 H         1.729962         1.586289         1.778837
 H         1.467625        -0.183432         2.218688
 H         4.208928         0.336737         2.081643
 H         5.163967         1.077178        -0.005796
 H         3.375168         2.237966        -1.676593
 H         3.214445         0.526221        -2.152816
 H         4.261987        -1.534306         0.231865
