19
Iteration:  3281charge 0 multiplicity 1
 C         0.019281        -0.331813        -0.074011
 C         1.495808         0.193809        -0.003752
 C         2.062083         0.712654         1.302899
 C         3.498395         0.272553         1.284765
 C         4.007113         0.638053        -0.101224
 C         3.127916         1.507179        -0.951970
 O         1.805176         0.923690        -1.146406
 C         3.498841        -0.765679         0.220924
 O         2.135566        -1.084485        -0.127633
 H        -0.035073        -1.272285         0.337713
 H        -0.827366         0.274999         0.223394
 H        -0.262269        -0.415440        -1.140703
 H         1.943356         1.799720         1.488650
 H         1.642738         0.262443         2.181538
 H         4.012681         0.252005         2.202790
 H         5.095587         0.921237        -0.442511
 H         2.876049         2.615582        -0.505864
 H         3.614854         1.625302        -1.933735
 H         4.179046        -1.591331         0.385407
