19
Iteration:  4235charge 0 multiplicity 1
 C         0.001511        -0.291763        -0.071635
 C         1.411170         0.106563         0.006243
 C         1.925110         0.713574         1.266218
 C         3.482006         0.372309         1.250075
 C         4.069073         0.579655        -0.127024
 C         3.145731         1.500581        -0.963481
 O         1.841837         0.979694        -1.058569
 C         3.521968        -0.726109         0.282774
 O         2.233251        -1.154615        -0.208395
 H        -0.335682        -0.664543         0.965708
 H        -0.682362         0.620799        -0.142832
 H        -0.193192        -0.992874        -0.883760
 H         1.698988         1.770730         1.399198
 H         1.455441         0.122441         2.121152
 H         4.024862         0.334764         2.184338
 H         5.189153         0.668656        -0.244795
 H         3.010212         2.481676        -0.589167
 H         3.554178         1.606100        -2.019131
 H         4.207076        -1.585600         0.304310
