19
Iteration:  1044
 C        -0.039544        -0.285109         0.024900
 C         1.431914         0.105487        -0.023070
 C         1.993842         0.707111         1.264838
 C         3.508522         0.436689         1.206380
 C         4.139577         0.574327        -0.160166
 C         3.233353         1.494021        -1.027854
 O         1.717484         0.924606        -1.155737
 C         3.528278        -0.761109         0.274446
 O         2.167163        -1.104505        -0.040869
 H        -0.173548        -1.046235         0.770672
 H        -0.651591         0.622171         0.168484
 H        -0.388816        -0.701467        -0.966579
 H         1.696933         1.770590         1.592095
 H         1.625418        -0.059696         2.083428
 H         4.152896         0.665251         2.079558
 H         5.211254         0.473230        -0.447634
 H         2.969121         2.493977        -0.629336
 H         3.559163         1.683833        -2.012641
 H         4.098423        -1.658360         0.337479
