19
Iteration:    70
 C        -0.082080        -0.187007        -0.152343
 C         1.388006         0.010067         0.130523
 C         2.053985         0.719766         1.400213
 C         3.486400         0.417447         1.334445
 C         4.038384         0.646689        -0.140218
 C         3.087552         1.288295        -1.259558
 O         1.657104         1.091537        -0.963455
 C         3.635457        -0.721463         0.376061
 O         2.351838        -1.211984        -0.219189
 H        -0.779058        -0.980379         0.439396
 H        -0.485894         0.871442        -0.158324
 H        -0.046048        -0.460080        -1.260547
 H         1.918840         1.717286         1.239728
 H         1.492790         0.283607         2.262015
 H         4.193222         0.412426         2.207001
 H         5.101706         0.827279        -0.451216
 H         3.255945         2.421179        -1.373061
 H         3.266706         0.835674        -2.194037
 H         4.451107        -1.465536         0.498036
