19
Iteration:    57
 C         0.011382        -0.224240        -0.073401
 C         1.510928        -0.040049         0.045485
 C         1.932604         0.762532         1.337620
 C         3.451883         0.379955         1.275204
 C         4.075276         0.693724        -0.139139
 C         3.109783         1.240582        -1.216228
 O         1.706968         1.065016        -0.909814
 C         3.563015        -0.701785         0.303192
 O         2.287985        -1.111228        -0.227861
 H        -0.397059        -0.972629         0.666341
 H        -0.484402         0.714891         0.162444
 H        -0.276067        -0.523040        -1.098044
 H         1.679183         1.751070         1.171602
 H         1.508960         0.536468         2.348560
 H         4.075991         0.275964         2.213703
 H         5.189797         0.817657        -0.139104
 H         3.240777         2.335498        -1.380748
 H         3.363397         0.735473        -2.138247
 H         4.128746        -1.635233         0.552251
