19
Iteration:  4270
 C         0.018788        -0.100999        -0.082624
 C         1.488404         0.017438         0.016755
 C         2.012862         0.671931         1.327521
 C         3.510879         0.253186         1.316741
 C         4.000209         0.722827        -0.112710
 C         2.964494         1.570973        -0.993896
 O         1.823170         0.835858        -1.175963
 C         3.554663        -0.778087         0.287547
 O         2.248630        -1.170524        -0.175931
 H        -0.327624        -0.728653         0.682649
 H        -0.279380         0.963864        -0.091620
 H        -0.272431        -0.540066        -1.050650
 H         1.892139         1.727572         1.332713
 H         1.427656         0.306106         2.210977
 H         4.059027         0.347985         2.241170
 H         4.970567         0.945693        -0.083557
 H         2.877301         2.503058        -0.546475
 H         3.446614         1.742226        -1.941157
 H         4.261719        -1.590853         0.304867
