19
Iteration:  1794
 C        -0.003552        -0.288360         0.027201
 C         1.430495         0.148319         0.085223
 C         1.948419         0.591130         1.379011
 C         3.408285         0.438769         1.252168
 C         4.032770         0.657989        -0.184540
 C         3.193469         1.108189        -1.261154
 O         1.701046         1.189648        -0.914970
 C         3.560135        -0.751016         0.301269
 O         2.339308        -0.992712        -0.266988
 H        -0.280496        -0.912624         0.930025
 H        -0.626811         0.561625        -0.076386
 H        -0.188472        -0.715358        -0.973783
 H         1.580202         1.536460         1.833633
 H         1.697098        -0.137739         2.100867
 H         4.084690         0.692786         2.024655
 H         5.072474         0.940963        -0.177053
 H         3.580770         2.024421        -1.718139
 H         3.234476         0.329193        -2.115028
 H         4.165812        -1.692080         0.441095
