19
Iteration:  2622charge 0 multiplicity 1
 C        -0.050111        -0.098802        -0.103385
 C         1.456427         0.065094         0.051806
 C         1.928652         0.521775         1.412217
 C         3.442267         0.360382         1.241283
 C         4.014488         0.665508        -0.144354
 C         3.141440         1.439471        -1.155629
 O         1.760630         1.002477        -1.013922
 C         3.620175        -0.759136         0.250093
 O         2.283178        -1.104289        -0.156533
 H        -0.419596        -0.479642         0.915999
 H        -0.575698         0.776990        -0.481591
 H        -0.111252        -0.960925        -0.746015
 H         1.575448         1.539638         1.714833
 H         1.621334        -0.198150         2.204434
 H         4.175886         0.372173         2.015297
 H         5.054381         0.788287        -0.389337
 H         3.173497         2.478236        -0.807332
 H         3.536274         1.095400        -2.119780
 H         4.433426        -1.489186         0.342610
