19
Iteration:  4342
 C         0.102480        -0.352825        -0.138587
 C         1.531003         0.144654         0.007876
 C         1.957476         0.730566         1.413723
 C         3.373250         0.338777         1.339644
 C         3.969749         0.636944        -0.066453
 C         3.083817         1.188441        -1.137297
 O         1.721632         1.201949        -0.865882
 C         3.623483        -0.807822         0.252023
 O         2.243658        -1.019000        -0.332169
 H         0.079838        -1.407816         0.279413
 H        -0.530357         0.483867         0.277448
 H        -0.101155        -0.504838        -1.202616
 H         1.761910         1.828043         1.387215
 H         1.428208         0.319099         2.304266
 H         4.010374         0.519836         2.142083
 H         5.085127         0.989388        -0.279358
 H         3.269878         2.183181        -1.600871
 H         3.569069         0.527589        -1.893850
 H         4.089481        -1.775446         0.256641
