19
Iteration:   560
 C        -0.054641        -0.160569        -0.139234
 C         1.442849         0.082611         0.103115
 C         1.978111         0.640357         1.371709
 C         3.509262         0.474507         1.222506
 C         4.038939         0.640941        -0.233321
 C         3.107953         1.325162        -1.191867
 O         1.717602         0.952075        -0.979473
 C         3.594337        -0.743513         0.336327
 O         2.300718        -1.121643        -0.066353
 H        -0.404789        -1.132529         0.260263
 H        -0.810777         0.624753         0.090576
 H        -0.032564        -0.200253        -1.278683
 H         1.735221         1.671572         1.486287
 H         1.674553         0.090240         2.222888
 H         4.164046         0.542914         2.097517
 H         5.153918         0.636967        -0.366061
 H         3.125017         2.421308        -1.121083
 H         3.240574         1.131010        -2.199241
 H         4.266739        -1.564631         0.464952
