19
Iteration:  1615charge 0 multiplicity 1
 C        -0.023472        -0.293990        -0.160616
 C         1.478576         0.086565         0.030976
 C         2.029697         0.757857         1.599963
 C         3.423440         0.371551         1.267090
 C         3.988947         0.650342        -0.191784
 C         3.138401         1.218812        -1.255744
 O         1.723826         1.056236        -0.954227
 C         3.557628        -0.727072         0.249467
 O         2.270233        -1.034207        -0.192239
 H        -0.215672        -1.009795         0.621694
 H        -0.668161         0.591110         0.060738
 H        -0.079131        -0.862627        -1.120918
 H         1.749006         1.749296         1.697323
 H         1.763768         0.196138         2.513158
 H         4.136209         0.490239         2.107706
 H         5.036138         0.930623        -0.153669
 H         3.345555         2.288450        -1.434683
 H         3.461730         0.719401        -2.161305
 H         4.248746        -1.583999         0.289367
