19
Iteration:  4697charge 0 multiplicity 1
 C        -0.018764        -0.280017        -0.014860
 C         1.451933         0.074322         0.068180
 C         1.948536         0.739170         1.298306
 C         3.464585         0.355608         1.254975
 C         4.022516         0.587618        -0.129637
 C         3.197056         1.479413        -0.989177
 O         1.813277         1.052056        -1.031080
 C         3.516261        -0.767672         0.190567
 O         2.215042        -1.151619        -0.258503
 H        -0.157408        -1.309027         0.588663
 H        -0.857477         0.342446         0.406712
 H        -0.170982        -0.700219        -1.007505
 H         1.677888         1.868065         1.293832
 H         1.554891         0.183061         2.157505
 H         4.116442         0.429953         2.100377
 H         5.201252         0.737168        -0.196075
 H         3.152191         2.518088        -0.603742
 H         3.628631         1.479764        -2.042519
 H         4.221111        -1.592479         0.337568
