19
Iteration:  4791
 C         0.056403        -0.260864        -0.194341
 C         1.519617         0.089339        -0.034622
 C         1.958938         0.616749         1.439234
 C         3.411189         0.411292         1.205610
 C         3.974166         0.572940        -0.151060
 C         3.106195         1.261378        -1.169005
 O         1.727272         1.252680        -0.765148
 C         3.538467        -0.812366         0.337774
 O         2.317450        -1.049910        -0.276879
 H        -0.153116        -0.950080         0.692847
 H        -0.717881         0.452388        -0.074735
 H        -0.090223        -0.915750        -0.991140
 H         1.499503         1.538583         1.512790
 H         1.722621        -0.183011         2.206618
 H         4.137747         0.566080         1.981232
 H         5.096425         0.818885        -0.267054
 H         3.541024         2.348387        -1.218235
 H         3.165111         0.965410        -2.240610
 H         4.109326        -1.789412         0.420167
