19
Iteration:   306charge 0 multiplicity 1
 C        -0.069859        -0.241574        -0.139248
 C         1.451535         0.053019         0.059653
 C         1.998705         0.675283         1.440530
 C         3.472060         0.434303         1.278418
 C         3.977319         0.629824        -0.178932
 C         3.125782         1.283013        -1.222705
 O         1.726793         1.089829        -0.968994
 C         3.606686        -0.760534         0.361303
 O         2.290415        -1.121396        -0.195507
 H        -0.535393        -0.860135         0.690046
 H        -0.488857         0.748608        -0.209744
 H        -0.107927        -0.784676        -1.062773
 H         1.798358         1.804627         1.588013
 H         1.662682         0.114358         2.297402
 H         4.226969         0.719534         1.997219
 H         5.053235         0.865537        -0.117380
 H         3.396467         2.348247        -1.354678
 H         3.485952         0.879513        -2.230394
 H         4.288524        -1.586459         0.396982
