19
Iteration:   503charge 0 multiplicity 1
 C         0.023973        -0.318149        -0.012542
 C         1.438902         0.110337        -0.054221
 C         1.994523         0.752688         1.469438
 C         3.466107         0.407546         1.414856
 C         4.017395         0.583816        -0.081884
 C         3.151047         1.149957        -1.195016
 O         1.640691         1.088431        -1.034040
 C         3.591363        -0.724910         0.254665
 O         2.314338        -0.948836        -0.312754
 H        -0.279419        -1.018287         0.860659
 H        -0.599841         0.568850         0.039517
 H        -0.230391        -1.023165        -0.826554
 H         1.781063         1.886081         1.451542
 H         1.427535         0.387040         2.211150
 H         4.193005         0.300955         2.257262
 H         5.056707         0.836441        -0.249592
 H         3.412858         2.140828        -1.511132
 H         3.315439         0.416586        -1.948711
 H         4.247212        -1.627924         0.265298
