19
Iteration:   331
 C         0.023150        -0.160068        -0.249148
 C         1.473079         0.063710         0.090358
 C         2.010153         0.718343         1.386834
 C         3.480811         0.395390         1.286803
 C         4.020344         0.684110        -0.202455
 C         3.047844         1.283875        -1.133265
 O         1.726964         0.959079        -0.938698
 C         3.535524        -0.709257         0.196859
 O         2.272200        -1.124856        -0.026885
 H        -0.347552        -0.949498         0.407734
 H        -0.513516         0.731456        -0.103661
 H         0.073347        -0.635655        -1.198507
 H         1.826692         1.785794         1.405192
 H         1.477633         0.170819         2.318673
 H         4.196142         0.235072         2.103799
 H         5.082562         0.872889        -0.325355
 H         3.185326         2.348444        -1.234923
 H         3.546857         1.030425        -2.216971
 H         4.197187        -1.626486         0.338882
