19
Iteration:  1858
 C        -0.070368        -0.267914        -0.077632
 C         1.435112         0.136864         0.016298
 C         2.141179         0.785916         1.391202
 C         3.592928         0.306149         1.306213
 C         4.069033         0.603311        -0.191657
 C         3.070505         1.483885        -1.082495
 O         1.724626         0.889639        -1.150065
 C         3.546106        -0.702445         0.241171
 O         2.160088        -1.131977        -0.055325
 H        -0.240371        -0.998284         0.818567
 H        -0.693975         0.616863        -0.160509
 H        -0.149259        -0.916983        -0.999241
 H         2.071188         1.889369         1.539178
 H         1.551249         0.182906         2.072767
 H         4.138291         0.351653         2.232592
 H         5.076733         0.894117        -0.459741
 H         2.865185         2.478231        -0.617487
 H         3.501689         1.525533        -2.049602
 H         4.113832        -1.674937         0.218574
