19
Iteration:  4227
 C         0.032624        -0.314687        -0.068640
 C         1.505324         0.114359        -0.025279
 C         1.948606         0.647019         1.353391
 C         3.401982         0.405802         1.249181
 C         4.048932         0.623431        -0.136736
 C         3.204634         1.514334        -1.046893
 O         1.834285         1.004471        -1.045689
 C         3.489916        -0.798670         0.296831
 O         2.169012        -1.107793        -0.192697
 H        -0.199137        -0.844775         0.793942
 H        -0.648867         0.517490        -0.238206
 H        -0.131873        -1.078332        -0.810154
 H         1.676915         1.671133         1.382616
 H         1.518027         0.152070         2.232720
 H         4.130454         0.345257         2.035526
 H         5.051120         0.717720        -0.213849
 H         3.206792         2.543000        -0.666223
 H         3.400905         1.594587        -2.090833
 H         4.164857        -1.639135         0.469824
