19
Iteration:  3560charge 0 multiplicity 1
 C        -0.049580        -0.199987        -0.197906
 C         1.391642         0.114612         0.035553
 C         1.871610         0.488437         1.371706
 C         3.390495         0.417030         1.269455
 C         4.071262         0.660216        -0.115014
 C         3.184166         1.084556        -1.252187
 O         1.739716         1.223817        -0.775597
 C         3.670010        -0.675980         0.326461
 O         2.352608        -1.069387        -0.254462
 H        -0.373623        -0.738095         0.670677
 H        -0.570504         0.817510        -0.138584
 H        -0.353598        -0.601677        -1.242081
 H         1.585137         1.497734         1.661714
 H         1.316134        -0.172041         2.176764
 H         4.138337         0.558683         2.103943
 H         5.171515         1.039914        -0.177065
 H         3.234122         2.035078        -1.555495
 H         3.342301         0.511264        -2.178370
 H         4.486577        -1.453711         0.457032
