19
Iteration:  3348
 C         0.003226        -0.223776        -0.108323
 C         1.405711         0.123861         0.083122
 C         1.939523         0.468762         1.521401
 C         3.389452         0.344401         1.379825
 C         3.998307         0.675267        -0.148132
 C         3.141350         1.233808        -1.280414
 O         1.793925         1.132990        -0.951572
 C         3.630290        -0.674642         0.250333
 O         2.261868        -0.999729        -0.307662
 H        -0.288758        -0.770738         0.748795
 H        -0.586277         0.672648        -0.324322
 H        -0.011962        -0.864265        -1.032611
 H         1.464605         1.489240         1.860466
 H         1.404203        -0.174956         2.208510
 H         4.205010         0.484413         2.128795
 H         5.144842         0.898439        -0.027141
 H         3.682764         2.323738        -1.454713
 H         3.440544         0.609342        -2.130509
 H         4.360407        -1.537798         0.343917
