19
Iteration:  2004charge 0 multiplicity 1
 C        -0.005699        -0.312617        -0.057639
 C         1.457789         0.139035         0.150660
 C         1.982878         0.620915         1.518138
 C         3.490431         0.392518         1.280076
 C         3.996888         0.643646        -0.159492
 C         3.209214         1.136245        -1.330814
 O         1.720312         1.135309        -0.943871
 C         3.549125        -0.707967         0.293285
 O         2.240601        -0.954177        -0.294722
 H        -0.383132        -0.771946         0.852552
 H        -0.640517         0.550718        -0.464957
 H        -0.024816        -1.066417        -0.843597
 H         1.694714         1.634713         1.661121
 H         1.623696         0.018699         2.311470
 H         4.149403         0.377806         2.129578
 H         5.092562         0.910907        -0.225564
 H         3.396370         2.174625        -1.505980
 H         3.257011         0.661284        -2.242964
 H         4.097454        -1.692355         0.364795
