19
Iteration:   161charge 0 multiplicity 1
 C         0.003756        -0.238688         0.006371
 C         1.524956         0.101852        -0.006976
 C         2.023217         0.844537         1.371744
 C         3.501097         0.317353         1.344917
 C         4.018254         0.604006        -0.119389
 C         3.069492         1.459088        -1.103460
 O         1.651053         0.884487        -1.136305
 C         3.536194        -0.756395         0.343084
 O         2.302475        -1.145724        -0.266601
 H        -0.248689        -0.973579         0.782057
 H        -0.595137         0.740580         0.101704
 H        -0.335848        -0.642461        -1.020614
 H         2.172233         1.932057         1.196465
 H         1.504201         0.562445         2.240232
 H         4.099662         0.249076         2.263370
 H         5.093159         0.634320        -0.208131
 H         3.000074         2.514402        -0.748432
 H         3.475912         1.395295        -2.127599
 H         4.258015        -1.596680         0.472580
