19
Iteration:  2490
 C        -0.024784        -0.194168        -0.047884
 C         1.490066         0.086710        -0.021840
 C         2.020952         0.633797         1.336379
 C         3.498391         0.329387         1.306944
 C         4.061398         0.627281        -0.092752
 C         3.110660         1.514323        -1.095509
 O         1.777767         0.949959        -1.235629
 C         3.507752        -0.749988         0.310370
 O         2.219510        -1.128711        -0.065535
 H        -0.130875        -1.013586         0.703632
 H        -0.524790         0.613900         0.546279
 H        -0.554549        -0.408188        -0.963109
 H         1.625778         1.646949         1.510273
 H         1.540562        -0.026820         2.062159
 H         4.052368         0.331066         2.296739
 H         5.067577         0.800177        -0.427742
 H         2.947439         2.584544        -0.735801
 H         3.652502         1.554697        -2.151477
 H         4.202427        -1.570779         0.170878
