19
Iteration:  2000
 C        -0.007953        -0.299124        -0.047539
 C         1.455596         0.101621         0.138839
 C         1.966061         0.632005         1.487580
 C         3.465458         0.420142         1.290495
 C         4.031378         0.607535        -0.200020
 C         3.184774         1.134766        -1.308169
 O         1.731804         1.176296        -0.905815
 C         3.541484        -0.719039         0.287959
 O         2.249287        -0.964316        -0.302082
 H        -0.411777        -0.816899         0.817543
 H        -0.661513         0.418764        -0.474753
 H         0.039744        -1.101963        -0.873190
 H         1.724448         1.727876         1.679967
 H         1.630826         0.010959         2.354380
 H         4.259819         0.349722         2.095671
 H         5.038011         0.965050        -0.223920
 H         3.355879         2.231243        -1.514867
 H         3.388919         0.526204        -2.276125
 H         4.100356        -1.599000         0.501509
