19
Iteration:   364
 C         0.017116        -0.283929         0.034635
 C         1.511840         0.075198         0.026399
 C         1.876908         0.680389         1.308656
 C         3.473939         0.516130         1.260168
 C         3.997774         0.502301        -0.187489
 C         3.215214         1.395156        -1.058569
 O         1.780417         1.026028        -1.178974
 C         3.535384        -0.767162         0.262560
 O         2.237115        -1.068230        -0.112356
 H        -0.105613        -1.101976         0.726253
 H        -0.727125         0.386826         0.346127
 H        -0.353893        -0.663382        -0.892441
 H         1.630870         1.690721         1.431206
 H         1.571135         0.138804         2.280367
 H         4.161621         0.814442         2.071499
 H         5.061142         0.647910        -0.094985
 H         3.189122         2.357722        -0.576545
 H         3.560522         1.398407        -2.170309
 H         4.001236        -1.784761         0.322598
