19
Iteration:  1836charge 0 multiplicity 1
 C         0.033525        -0.178227        -0.120932
 C         1.504413         0.070631         0.130729
 C         1.971576         0.672909         1.428791
 C         3.513936         0.385882         1.140888
 C         3.959760         0.602513        -0.190895
 C         3.092822         1.403145        -1.175463
 O         1.727449         0.995969        -0.971919
 C         3.513300        -0.749490         0.230260
 O         2.275564        -1.153524        -0.043364
 H        -0.514707        -0.722325         0.753328
 H        -0.333945         0.787951        -0.483407
 H         0.029448        -0.831403        -1.009341
 H         1.775322         1.753871         1.352945
 H         1.554666         0.178802         2.315346
 H         4.237623         0.530052         1.881791
 H         5.006545         0.818442        -0.323779
 H         3.139617         2.511610        -1.015728
 H         3.447037         1.110089        -2.133004
 H         4.340719        -1.485204         0.142574
