19
Iteration:  3802charge 0 multiplicity 1
 C        -0.029351        -0.146840        -0.144963
 C         1.442178         0.128118         0.054972
 C         1.905958         0.485545         1.433393
 C         3.406133         0.433112         1.256673
 C         4.036380         0.656709        -0.108412
 C         3.206410         1.309131        -1.192601
 O         1.742488         1.042061        -0.943365
 C         3.569497        -0.738514         0.279923
 O         2.326756        -1.071404        -0.190158
 H        -0.448031        -1.103992         0.301774
 H        -0.499951         0.824006         0.001447
 H        -0.095028        -0.218339        -1.206776
 H         1.586261         1.460583         1.665742
 H         1.535609        -0.286926         2.143181
 H         4.094815         0.530226         2.085192
 H         5.159233         0.768069        -0.187616
 H         2.970211         2.408845        -1.290704
 H         3.577459         0.724014        -2.051562
 H         4.371607        -1.535250         0.281018
