19
Iteration:   813
 C        -0.048456        -0.245181        -0.116182
 C         1.462400         0.109316         0.002132
 C         2.027809         0.736164         1.311675
 C         3.607025         0.409274         1.289796
 C         3.999985         0.554946        -0.193503
 C         3.099115         1.441005        -1.055064
 O         1.760566         0.930302        -1.074340
 C         3.528172        -0.731412         0.189021
 O         2.198256        -1.155209         0.022217
 H        -0.295063        -0.739493         0.884191
 H        -0.621171         0.711534        -0.221104
 H        -0.172371        -0.799467        -1.042312
 H         1.851896         1.732402         1.490071
 H         1.630839         0.249416         2.194153
 H         4.282571         0.667764         2.141048
 H         5.048721         0.627841        -0.399909
 H         3.117240         2.534383        -0.845560
 H         3.269643         1.474507        -2.195636
 H         4.238161        -1.533275         0.245311
