19
Iteration:   471
 C        -0.012153        -0.274741        -0.103781
 C         1.458525         0.112172         0.036066
 C         1.921754         0.669137         1.389461
 C         3.468332         0.405079         1.223444
 C         4.061398         0.622485        -0.180467
 C         3.159538         1.330946        -1.252451
 O         1.724807         1.080470        -0.900995
 C         3.595645        -0.750094         0.270926
 O         2.251774        -1.123923        -0.086507
 H        -0.378635        -0.841237         0.819583
 H        -0.554293         0.632689        -0.346554
 H         0.030158        -0.876469        -1.029949
 H         1.703780         1.760272         1.464299
 H         1.411434         0.121848         2.091361
 H         4.041326         0.510949         2.160663
 H         5.078539         0.962392        -0.289823
 H         3.360592         2.390225        -1.362740
 H         3.347423         0.880963        -2.153427
 H         4.302461        -1.600134         0.403433
