19
Iteration:  1709charge 0 multiplicity 1
 C        -0.002093        -0.126771        -0.032037
 C         1.471591         0.026584         0.076054
 C         1.985670         0.668183         1.368142
 C         3.488194         0.422013         1.203764
 C         3.982199         0.628876        -0.194566
 C         3.093989         1.545095        -1.096193
 O         1.800534         0.898276        -1.201107
 C         3.571512        -0.773100         0.235896
 O         2.218446        -1.207441         0.022116
 H        -0.288783        -1.013218         0.537047
 H        -0.579941         0.690771         0.265521
 H        -0.077056        -0.521181        -1.069710
 H         1.780725         1.778165         1.541529
 H         1.639909         0.057558         2.248673
 H         4.142922         0.487598         2.033404
 H         5.026214         0.823724        -0.317207
 H         3.123585         2.552202        -0.651976
 H         3.399427         1.671903        -2.157354
 H         4.241264        -1.655878         0.247094
