19
Iteration:  3988charge 0 multiplicity 1
 C         0.085565        -0.382299        -0.119245
 C         1.430239         0.191545         0.013685
 C         1.910637         0.654960         1.480103
 C         3.368442         0.406750         1.240982
 C         4.025414         0.532535        -0.093975
 C         3.179586         1.246342        -1.162126
 O         1.794065         1.180985        -0.901827
 C         3.517471        -0.764425         0.262149
 O         2.254258        -0.985135        -0.306371
 H         0.055004        -1.331323         0.501925
 H        -0.654593         0.391178         0.081907
 H        -0.016966        -0.548210        -1.151471
 H         1.636410         1.640349         1.738867
 H         1.525343        -0.002127         2.310049
 H         4.130890         0.578392         2.024268
 H         5.152567         0.820396        -0.139591
 H         3.397261         2.288223        -1.269541
 H         3.413617         0.665287        -2.092496
 H         4.181277        -1.623557         0.415615
