19
Iteration:  1236charge 0 multiplicity 1
 C        -0.081307        -0.167176        -0.053060
 C         1.433526         0.136196        -0.009881
 C         2.025829         0.610944         1.351150
 C         3.521919         0.401882         1.311546
 C         4.045462         0.639198        -0.162895
 C         3.115147         1.495612        -1.112678
 O         1.755105         0.876811        -1.145445
 C         3.578725        -0.730145         0.288020
 O         2.216761        -1.166117        -0.084698
 H        -0.027142        -1.095126         0.628040
 H        -0.664815         0.635517         0.357614
 H        -0.439349        -0.384151        -1.128579
 H         1.785638         1.700022         1.587652
 H         1.619665         0.014414         2.178251
 H         4.205396         0.402154         2.181329
 H         5.169350         0.823354        -0.216919
 H         3.019430         2.528559        -0.897484
 H         3.534008         1.441468        -2.150892
 H         4.379135        -1.457745         0.340537
