19
Iteration:  3556
 C        -0.048946        -0.209292        -0.224623
 C         1.383393         0.099634         0.048226
 C         1.869058         0.493167         1.383615
 C         3.423303         0.426158         1.240502
 C         4.087964         0.640474        -0.119697
 C         3.187816         1.091194        -1.259352
 O         1.717671         1.221615        -0.768297
 C         3.657336        -0.683210         0.329062
 O         2.355142        -1.069996        -0.259092
 H        -0.539408        -0.668589         0.677008
 H        -0.431818         0.776475        -0.099274
 H        -0.297458        -0.638766        -1.125322
 H         1.679563         1.576520         1.579028
 H         1.448854        -0.081761         2.119488
 H         3.988299         0.627614         2.156089
 H         4.995386         1.072315        -0.043759
 H         3.301457         2.281201        -1.388476
 H         3.363594         0.460277        -2.128031
 H         4.416343        -1.499476         0.470042
