19
Iteration:   588charge 0 multiplicity 1
 C        -0.024503        -0.235815        -0.096377
 C         1.438913         0.065205        -0.008975
 C         2.081513         0.809230         1.433205
 C         3.557424         0.383355         1.326360
 C         3.988641         0.675591        -0.119134
 C         3.082139         1.384813        -1.085592
 O         1.715605         0.901783        -1.173149
 C         3.577712        -0.753761         0.243898
 O         2.204411        -1.159750        -0.065467
 H        -0.292993        -1.131278         0.511481
 H        -0.633461         0.606482         0.093302
 H        -0.129524        -0.376584        -1.150733
 H         2.099954         1.974333         1.366293
 H         1.611384         0.426574         2.401464
 H         4.290185         0.440053         2.143006
 H         5.024663         0.621642        -0.314977
 H         2.988675         2.458097        -0.804031
 H         3.449381         1.377102        -2.214230
 H         4.250873        -1.595528         0.015101
