19
Iteration:  4288charge 0 multiplicity 1
 C         0.043090        -0.153834        -0.090847
 C         1.495051         0.113349        -0.012899
 C         1.948036         0.569720         1.391947
 C         3.448372         0.425169         1.248239
 C         3.937091         0.661496        -0.100650
 C         3.157609         1.509463        -1.034889
 O         1.831662         0.869390        -1.110031
 C         3.543743        -0.690885         0.179061
 O         2.214719        -1.185713        -0.086814
 H        -0.222143        -0.951664         0.723446
 H        -0.559663         0.797311         0.121122
 H        -0.206706        -0.365006        -1.138893
 H         1.603032         1.595208         1.687526
 H         1.496782        -0.199673         2.079119
 H         4.135718         0.298169         2.047824
 H         5.097564         0.614625        -0.318537
 H         2.807164         2.556365        -0.573430
 H         3.735220         1.592332        -2.016998
 H         4.301700        -1.471942         0.124001
