19
Iteration:  1082charge 0 multiplicity 1
 C         0.007102        -0.226448        -0.044109
 C         1.476389         0.077926         0.057197
 C         2.012051         0.800568         1.313916
 C         3.513620         0.359002         1.279330
 C         3.982409         0.633318        -0.085179
 C         3.114375         1.410999        -1.064005
 O         1.722390         0.875635        -1.063148
 C         3.552019        -0.778712         0.223160
 O         2.231654        -1.101263        -0.182285
 H        -0.382796        -1.099803         0.589696
 H        -0.529547         0.702857         0.360725
 H        -0.169365        -0.434217        -1.092262
 H         1.885068         1.834868         1.091277
 H         1.503428         0.544042         2.180484
 H         4.269408         0.722110         2.004007
 H         5.063509         0.514358        -0.188187
 H         3.214406         2.403408        -0.709425
 H         3.427013         1.304026        -2.160324
 H         4.360694        -1.584906         0.234706
