19
Iteration:  2740charge 0 multiplicity 1
 C        -0.014108        -0.143714        -0.169546
 C         1.475500         0.025882         0.056713
 C         1.962354         0.549508         1.472495
 C         3.406771         0.383761         1.329395
 C         3.917129         0.671008        -0.130760
 C         3.168989         1.216917        -1.341783
 O         1.783938         1.143974        -0.923255
 C         3.621481        -0.693218         0.283495
 O         2.311327        -1.047829        -0.190304
 H        -0.222582        -1.243051         0.138644
 H        -0.608279         0.401061         0.560681
 H        -0.344262        -0.103969        -1.184302
 H         1.330792         1.493492         1.761602
 H         1.599026        -0.162584         2.334509
 H         4.098848         0.605408         2.114708
 H         4.928990         0.997935         0.089044
 H         3.422708         2.188686        -1.632883
 H         3.471202         0.443178        -2.084811
 H         4.151846        -1.645266         0.268677
