19
Iteration:  1656
 C         0.044597        -0.269240         0.039222
 C         1.467178         0.071078        -0.049217
 C         1.934895         0.768295         1.319851
 C         3.460339         0.423937         1.186880
 C         4.020899         0.557921        -0.187649
 C         3.135757         1.456207        -1.026549
 O         1.772437         0.970440        -1.087461
 C         3.554459        -0.764225         0.282838
 O         2.242288        -1.171261        -0.134498
 H        -0.175000        -0.645894         1.051437
 H        -0.494782         0.703757        -0.024600
 H        -0.404194        -0.966886        -0.764082
 H         1.884896         1.833970         1.477177
 H         1.372572         0.270925         2.163573
 H         4.250222         0.523316         1.893681
 H         5.058260         0.741270        -0.322919
 H         3.123719         2.471355        -0.516631
 H         3.328760         1.608000        -2.070977
 H         4.208903        -1.637419         0.420983
