19
Iteration:   432
 C         0.005471        -0.186731        -0.112241
 C         1.481767         0.166721         0.065075
 C         1.983323         0.624271         1.380924
 C         3.489814         0.457507         1.223293
 C         4.055404         0.623504        -0.237649
 C         3.111383         1.456214        -1.147093
 O         1.755504         0.915446        -1.058465
 C         3.566397        -0.762676         0.355070
 O         2.214878        -1.170213        -0.087837
 H        -0.438971        -0.903374         0.526055
 H        -0.643334         0.692186        -0.034058
 H        -0.084112        -0.730327        -1.065635
 H         1.570475         1.601376         1.532707
 H         1.649772        -0.008976         2.308741
 H         4.243462         0.543723         1.984710
 H         5.155998         0.693266        -0.105873
 H         3.006804         2.530760        -0.889320
 H         3.315468         1.300205        -2.301483
 H         4.182755        -1.566852         0.603631
