19
Iteration:  1360
 C        -0.082427        -0.259749        -0.142371
 C         1.477042         0.091879         0.058546
 C         1.956219         0.648730         1.441708
 C         3.486718         0.425731         1.291667
 C         4.002969         0.643499        -0.158864
 C         3.103456         1.183716        -1.224413
 O         1.700312         1.105688        -0.893425
 C         3.640778        -0.695919         0.297853
 O         2.346665        -1.054169        -0.253083
 H        -0.318472        -0.943474         0.690181
 H        -0.534201         0.782577         0.097537
 H        -0.354231        -0.606713        -1.122317
 H         1.597374         1.678643         1.590242
 H         1.528519         0.124456         2.278561
 H         4.241369         0.497185         2.079185
 H         5.051258         0.865145        -0.151549
 H         3.396721         2.173712        -1.578416
 H         3.253645         0.431576        -2.086916
 H         4.177051        -1.650426         0.328373
