19
Iteration:  3765charge 0 multiplicity 1
 C         0.044273        -0.305935        -0.170770
 C         1.465485         0.153582         0.054826
 C         1.902012         0.599982         1.418979
 C         3.405902         0.356418         1.303525
 C         3.986802         0.623217        -0.107722
 C         3.146388         1.158356        -1.257706
 O         1.784392         1.258144        -0.812997
 C         3.543076        -0.766103         0.277315
 O         2.333009        -1.041206        -0.276731
 H        -0.219722        -1.187054         0.284441
 H        -0.625870         0.439674         0.259583
 H        -0.069682        -0.356239        -1.296741
 H         1.502609         1.613783         1.475453
 H         1.567927         0.102823         2.300508
 H         3.881086         0.716086         2.207308
 H         5.085111         0.947436        -0.052374
 H         3.526875         2.068124        -1.630561
 H         3.083039         0.497224        -2.155625
 H         4.271983        -1.512831         0.375920
