19
Iteration:  2189
 C        -0.004224        -0.315393        -0.184371
 C         1.423562         0.188477         0.118742
 C         2.049000         0.682030         1.501203
 C         3.528139         0.353723         1.285987
 C         4.000242         0.673132        -0.144367
 C         3.119386         1.104317        -1.255074
 O         1.700860         1.118401        -0.889592
 C         3.582392        -0.710830         0.228357
 O         2.216918        -0.962224        -0.222050
 H        -0.396623        -0.731324         0.748688
 H        -0.733514         0.367951        -0.624662
 H         0.046651        -1.061781        -0.854584
 H         1.764711         1.699184         1.624086
 H         1.789126         0.139933         2.395322
 H         4.126645         0.272012         2.223719
 H         5.084786         0.846716        -0.175631
 H         3.333579         2.079752        -1.712370
 H         3.476899         0.351734        -1.967649
 H         4.242233        -1.528842         0.077152
