19
Iteration:   583
 C        -0.033764        -0.245560        -0.152079
 C         1.428414         0.049044         0.001151
 C         2.110086         0.821635         1.456573
 C         3.568216         0.361855         1.311538
 C         3.971274         0.679941        -0.137273
 C         3.064401         1.347534        -1.102488
 O         1.721580         0.921140        -1.156299
 C         3.601834        -0.791171         0.238943
 O         2.219794        -1.123673        -0.037068
 H        -0.450236        -1.047861         0.435390
 H        -0.683506         0.676687         0.143767
 H        -0.398078        -0.314484        -1.238603
 H         2.064937         1.860100         1.453028
 H         1.607457         0.392474         2.347106
 H         4.288205         0.498747         2.116500
 H         5.090669         0.947041        -0.232336
 H         2.998270         2.432895        -0.875265
 H         3.341422         1.333955        -2.085118
 H         4.358232        -1.603381         0.181717
