19
Iteration:  4873charge 0 multiplicity 1
 C        -0.035639        -0.122643        -0.090745
 C         1.480854         0.059068         0.023718
 C         1.972326         0.632231         1.310998
 C         3.492414         0.415836         1.237569
 C         4.054756         0.596478        -0.215164
 C         3.053620         1.550538        -0.861704
 O         1.817638         0.919478        -1.111610
 C         3.602147        -0.800966         0.221391
 O         2.243827        -1.224477        -0.176362
 H        -0.279411        -0.886777         0.578506
 H        -0.548135         0.748385         0.390795
 H        -0.721845        -0.205015        -1.052846
 H         1.641263         1.717190         1.559952
 H         1.407668         0.121177         2.035718
 H         4.232890         0.557009         2.048970
 H         5.053557         0.800175        -0.229114
 H         2.993173         2.409204        -0.142095
 H         3.281735         1.878792        -1.906161
 H         4.322474        -1.615631         0.348621
