19
Iteration:   861charge 0 multiplicity 1
 C        -0.067613        -0.246505         0.055453
 C         1.521472         0.026838        -0.045359
 C         1.985720         0.739726         1.225069
 C         3.445232         0.429864         1.264270
 C         4.037173         0.592700        -0.168688
 C         3.147650         1.425292        -1.083953
 O         1.756102         0.986514        -1.068920
 C         3.594091        -0.792246         0.273720
 O         2.230716        -1.113764        -0.102274
 H        -0.209643        -0.720076         1.078487
 H        -0.612907         0.713196         0.181345
 H        -0.649349        -0.814332        -0.758272
 H         1.775091         1.773618         1.230228
 H         1.618677         0.355256         2.173212
 H         4.136880         0.313919         2.079554
 H         5.155306         0.623279        -0.245477
 H         3.282106         2.498664        -0.753419
 H         3.332678         1.501303        -2.149270
 H         4.224108        -1.696316         0.200024
