19
Iteration:  3664
 C        -0.044055        -0.125904        -0.108620
 C         1.464550         0.047235        -0.052793
 C         2.002589         0.665702         1.349567
 C         3.539707         0.302612         1.271984
 C         4.076492         0.677055        -0.130590
 C         3.065677         1.549787        -0.906141
 O         1.850441         0.829521        -1.218580
 C         3.486938        -0.749695         0.222142
 O         2.196822        -1.105188        -0.075318
 H        -0.258793        -0.934630         0.653482
 H        -0.632419         0.773760        -0.045104
 H        -0.345521        -0.689061        -0.938921
 H         1.971096         1.756144         1.667932
 H         1.513700        -0.019224         2.019321
 H         4.070637         0.325846         2.249012
 H         5.067644         0.801827        -0.245714
 H         2.701282         2.345041        -0.370385
 H         3.603258         1.862846        -1.801770
 H         4.258492        -1.595609         0.306342
