19
Iteration:  3918
 C        -0.051927        -0.155581        -0.166713
 C         1.526276         0.037927         0.090321
 C         1.921240         0.526823         1.495559
 C         3.415928         0.395983         1.302836
 C         4.040126         0.673444        -0.142404
 C         3.150221         1.382677        -1.221160
 O         1.752860         1.021872        -0.998327
 C         3.594557        -0.691220         0.303370
 O         2.292890        -1.113672        -0.231482
 H        -0.538976        -0.856439         0.449536
 H        -0.427622         0.885653        -0.052256
 H        -0.300466        -0.318517        -1.297423
 H         1.545191         1.614640         1.704128
 H         1.574119        -0.124889         2.318181
 H         4.027674         0.433381         2.197149
 H         5.235145         0.745830        -0.125116
 H         3.256582         2.456310        -1.090497
 H         3.495463         0.929999        -2.185854
 H         4.052383        -1.713246         0.365277
