19
Iteration:    55charge 0 multiplicity 1
 C         0.012169        -0.235789        -0.064806
 C         1.506157        -0.017526         0.036287
 C         1.932719         0.745799         1.332979
 C         3.440332         0.395202         1.273500
 C         4.070065         0.683358        -0.126787
 C         3.111803         1.241972        -1.206587
 O         1.721833         1.057310        -0.910025
 C         3.560056        -0.720075         0.281480
 O         2.285529        -1.095668        -0.221176
 H        -0.309834        -0.926098         0.620441
 H        -0.449361         0.676006         0.206687
 H        -0.286556        -0.554436        -1.034777
 H         1.640400         1.830488         1.210662
 H         1.514385         0.542599         2.322770
 H         4.049796         0.328744         2.183477
 H         5.152801         0.846766        -0.152321
 H         3.254870         2.293185        -1.369329
 H         3.378977         0.706801        -2.167318
 H         4.143905        -1.620748         0.515118
