19
Iteration:  4362charge 0 multiplicity 1
 C        -0.064042        -0.348619        -0.123088
 C         1.444720         0.179712         0.061447
 C         1.959829         0.541007         1.446313
 C         3.388747         0.308987         1.335838
 C         4.050974         0.679907        -0.084143
 C         3.175580         1.148551        -1.285053
 O         1.747250         1.243840        -0.913397
 C         3.527198        -0.656146         0.287941
 O         2.352306        -0.992689        -0.271292
 H        -0.027677        -1.270874         0.530386
 H        -0.726707         0.477062         0.074494
 H        -0.221732        -0.706987        -1.114388
 H         1.566141         1.606361         1.547027
 H         1.534144        -0.003731         2.259709
 H         4.097384         0.251608         2.144235
 H         5.222290         1.046628        -0.029986
 H         3.543766         2.068830        -1.618153
 H         3.317259         0.481367        -2.215941
 H         4.112016        -1.568057         0.258306
