19
Iteration:  4497charge 0 multiplicity 1
 C        -0.011579        -0.187410        -0.054968
 C         1.456972         0.068389         0.008284
 C         1.980647         0.639642         1.391906
 C         3.429651         0.330354         1.311948
 C         4.036979         0.705198        -0.084565
 C         3.162864         1.454201        -1.054546
 O         1.743007         0.917053        -1.064031
 C         3.590678        -0.722686         0.254917
 O         2.266514        -1.141956        -0.254376
 H        -0.443172        -1.051838         0.435214
 H        -0.546367         0.716640         0.320828
 H        -0.341043        -0.135969        -1.158467
 H         1.866613         1.671127         1.534804
 H         1.389164         0.161969         2.267601
 H         4.078474         0.259018         2.256470
 H         5.030914         0.853332        -0.200908
 H         3.153738         2.558464        -0.982663
 H         3.441969         1.299285        -2.092420
 H         4.270965        -1.568260        -0.015634
