19
Iteration:  4144
 C         0.002633        -0.246988        -0.179920
 C         1.476910         0.136593         0.008784
 C         1.864334         0.452687         1.405599
 C         3.365748         0.414294         1.326942
 C         4.067515         0.679391        -0.118626
 C         3.130185         1.186245        -1.312395
 O         1.824063         1.202912        -0.880682
 C         3.578052        -0.714596         0.326553
 O         2.307524        -1.021811        -0.185469
 H        -0.156354        -1.031194         0.571012
 H        -0.563180         0.540265         0.329138
 H        -0.349192        -0.274457        -1.264025
 H         1.448343         1.463470         1.700847
 H         1.433164        -0.346982         2.006928
 H         4.061403         0.575758         2.147269
 H         5.119980         0.866342        -0.061499
 H         3.463611         2.118311        -1.697253
 H         3.162089         0.422888        -2.137724
 H         4.260335        -1.486423         0.531903
