19
Iteration:  4691
 C         0.036563        -0.314140        -0.019093
 C         1.422465         0.104871         0.069574
 C         1.976109         0.753388         1.331502
 C         3.477078         0.366258         1.236250
 C         4.042421         0.569040        -0.077579
 C         3.171034         1.531152        -1.005100
 O         1.801675         0.995472        -1.068641
 C         3.499281        -0.775768         0.193766
 O         2.190485        -1.139687        -0.243937
 H         0.011985        -1.176117         0.474325
 H        -0.697542         0.386891         0.306932
 H        -0.213204        -0.583402        -1.104493
 H         1.688926         1.783733         1.249669
 H         1.549235         0.340723         2.255804
 H         4.163791         0.248477         2.120498
 H         5.032619         0.681038        -0.120575
 H         3.170512         2.518160        -0.459062
 H         3.534972         1.520005        -1.992155
 H         4.188881        -1.606347         0.061552
