19
Iteration:  2625charge 0 multiplicity 1
 C        -0.056684        -0.098329        -0.098330
 C         1.483560         0.063543         0.054549
 C         1.914742         0.520149         1.443191
 C         3.433504         0.380579         1.240202
 C         4.008102         0.667156        -0.154078
 C         3.148746         1.455814        -1.157356
 O         1.776431         0.983754        -1.033356
 C         3.606240        -0.754806         0.241074
 O         2.277907        -1.106986        -0.149035
 H        -0.418593        -0.420638         0.857637
 H        -0.584894         0.787299        -0.467776
 H        -0.143433        -1.038738        -0.762209
 H         1.663251         1.486892         1.813064
 H         1.601247        -0.191855         2.208588
 H         4.207164         0.250099         2.002508
 H         5.100574         0.707104        -0.407508
 H         3.049647         2.488385        -0.750985
 H         3.593627         1.195366        -2.198263
 H         4.408239        -1.475517         0.338322
