19
Iteration:  2988
 C        -0.054834        -0.175769        -0.159009
 C         1.488472         0.009221        -0.029045
 C         1.941343         0.540867         1.479673
 C         3.425810         0.359846         1.291622
 C         3.993950         0.648387        -0.101340
 C         3.111626         1.218406        -1.256289
 O         1.751156         1.194897        -0.873363
 C         3.592045        -0.713182         0.292813
 O         2.352261        -1.043917        -0.235363
 H        -0.549397        -0.815982         0.642151
 H        -0.628488         0.747463        -0.190938
 H        -0.256926        -0.685464        -1.130104
 H         1.765879         1.601290         1.762305
 H         1.686422        -0.162266         2.258040
 H         4.249773         0.615750         1.976621
 H         5.028303         1.060788        -0.215608
 H         3.271494         2.281474        -1.490983
 H         3.338802         0.465621        -2.043867
 H         4.266150        -1.546055         0.502105
