19
Iteration:  4271charge 0 multiplicity 1
 C         0.028149        -0.095962        -0.078753
 C         1.497816         0.021459         0.017467
 C         2.010324         0.668722         1.333286
 C         3.501119         0.254264         1.319977
 C         3.995631         0.728244        -0.117503
 C         2.971100         1.573422        -0.989121
 O         1.825800         0.832593        -1.177699
 C         3.542616        -0.779998         0.279389
 O         2.248306        -1.172479        -0.171870
 H        -0.329328        -0.733177         0.636678
 H        -0.278651         0.934331        -0.072353
 H        -0.246806        -0.549096        -1.041324
 H         1.843700         1.727400         1.360434
 H         1.456578         0.269976         2.191741
 H         4.049343         0.367064         2.267242
 H         4.984764         0.948231        -0.145414
 H         2.914954         2.511151        -0.588988
 H         3.411454         1.717534        -1.950344
 H         4.255218        -1.587149         0.299917
