19
Iteration:  3697charge 0 multiplicity 1
 C         0.007417        -0.111029        -0.144901
 C         1.482681         0.008114         0.025198
 C         1.963236         0.626776         1.339527
 C         3.397448         0.328550         1.281724
 C         4.019099         0.661081        -0.153324
 C         3.127979         1.498642        -1.023660
 O         1.788204         0.941994        -1.029101
 C         3.531338        -0.743001         0.243318
 O         2.307409        -1.177437        -0.167263
 H        -0.317781        -0.490604         0.914536
 H        -0.400953         0.885725        -0.083455
 H        -0.270208        -0.716515        -0.957026
 H         1.766890         1.767540         1.515969
 H         1.385106         0.165507         2.136536
 H         4.114418         0.457727         2.132169
 H         5.000487         0.805403        -0.224853
 H         3.000865         2.529150        -0.763793
 H         3.525185         1.495174        -2.046014
 H         4.125026        -1.746951         0.247439
