19
Iteration:  1367
 C        -0.002886        -0.241941        -0.119549
 C         1.478994         0.089129         0.094281
 C         1.948668         0.622799         1.472197
 C         3.409296         0.378660         1.259953
 C         3.977788         0.682154        -0.137898
 C         3.134964         1.129578        -1.318688
 O         1.720779         1.131085        -0.918099
 C         3.602246        -0.712331         0.281942
 O         2.321439        -1.011388        -0.227131
 H        -0.109367        -1.022451         0.634170
 H        -0.614875         0.624290         0.162493
 H        -0.194625        -0.674243        -1.126556
 H         1.657360         1.708506         1.626191
 H         1.759854         0.049038         2.393220
 H         4.196585         0.395927         1.990620
 H         5.013957         0.996332        -0.095645
 H         3.254348         2.248484        -1.471743
 H         3.395475         0.617205        -2.216396
 H         4.181080        -1.602100         0.588216
