19
Iteration:  1829charge 0 multiplicity 1
 C         0.025504        -0.168983        -0.107087
 C         1.449501         0.028293         0.121280
 C         1.983903         0.686292         1.443370
 C         3.457262         0.447916         1.233482
 C         3.989444         0.610417        -0.310336
 C         3.152514         1.370660        -1.198701
 O         1.724552         1.043731        -0.915926
 C         3.547901        -0.707775         0.255708
 O         2.292099        -1.220586        -0.108484
 H        -0.550576        -0.583684         0.656624
 H        -0.358251         0.794389        -0.343132
 H        -0.027384        -0.919937        -0.949973
 H         1.620843         1.746538         1.514077
 H         1.541798         0.055909         2.196453
 H         4.196039         0.536173         2.107069
 H         5.080669         0.712016        -0.387811
 H         3.144131         2.446190        -1.113212
 H         3.396685         1.030962        -2.280045
 H         4.222946        -1.568815         0.293032
