19
Iteration:    51
 C         0.024951        -0.254012        -0.051863
 C         1.474306         0.050579         0.022709
 C         1.940935         0.720146         1.328513
 C         3.411979         0.431738         1.263940
 C         4.045796         0.650402        -0.096129
 C         3.123986         1.234781        -1.192180
 O         1.755828         1.042411        -0.920235
 C         3.562520        -0.755030         0.244263
 O         2.284437        -1.070289        -0.207949
 H        -0.210391        -1.050208         0.729628
 H        -0.450480         0.705332         0.284645
 H        -0.333060        -0.630530        -1.029195
 H         1.642803         1.855482         1.268540
 H         1.498647         0.437209         2.289613
 H         4.020524         0.466640         2.137411
 H         5.085542         0.915179        -0.212080
 H         3.299997         2.314187        -1.356486
 H         3.381763         0.699180        -2.155353
 H         4.213585        -1.584688         0.411994
