19
Iteration:  3012charge 0 multiplicity 1
 C         0.044336        -0.169953        -0.134706
 C         1.490690         0.027624         0.065562
 C         1.940290         0.627150         1.399358
 C         3.423362         0.434978         1.300125
 C         4.062934         0.592111        -0.173112
 C         3.123696         1.365153        -1.143449
 O         1.739764         1.110351        -0.909820
 C         3.551857        -0.764884         0.208751
 O         2.280445        -1.179672        -0.200098
 H        -0.455666        -0.726352         0.660478
 H        -0.692813         0.635851        -0.328905
 H        -0.053853        -0.886148        -1.057479
 H         1.600212         1.729172         1.426173
 H         1.496240         0.021152         2.158900
 H         4.061281         0.651574         2.158007
 H         5.035280         0.992646        -0.413087
 H         3.111957         2.432294        -0.840049
 H         3.499035         1.111381        -2.151502
 H         4.237737        -1.576027         0.427192
