19
Iteration:  3580charge 0 multiplicity 1
 C         0.045790        -0.244254        -0.155984
 C         1.496767         0.090665         0.058677
 C         1.909320         0.487102         1.477687
 C         3.427478         0.419416         1.305157
 C         3.967023         0.681402        -0.058422
 C         3.176065         1.149730        -1.328100
 O         1.784427         1.216282        -0.925655
 C         3.517036        -0.688258         0.306696
 O         2.298525        -1.021808        -0.272246
 H        -0.325045        -0.962691         0.551224
 H        -0.508027         0.647810         0.178930
 H        -0.173841        -0.454424        -1.227871
 H         1.511430         1.441235         1.825927
 H         1.559106        -0.279124         2.187095
 H         3.894647         0.526256         2.328852
 H         4.986073         1.018714        -0.001976
 H         3.488510         2.159171        -1.743211
 H         3.405027         0.338442        -2.034654
 H         4.169611        -1.658815         0.380812
