19
Iteration:  4840
 C        -0.023974        -0.209895        -0.056445
 C         1.428871         0.068321         0.012188
 C         2.036817         0.601243         1.359333
 C         3.537439         0.280080         1.319209
 C         4.036308         0.701461        -0.030715
 C         3.078168         1.497354        -1.049560
 O         1.776851         0.974260        -1.096926
 C         3.596188        -0.767910         0.193915
 O         2.179667        -1.112748        -0.212750
 H        -0.321796        -1.011113         0.591277
 H        -0.508754         0.682938         0.424342
 H        -0.363304        -0.443644        -1.162791
 H         1.943625         1.753963         1.293105
 H         1.371184         0.105389         2.009076
 H         4.118144         0.376564         2.266452
 H         5.053327         0.965603        -0.089235
 H         3.109181         2.553103        -0.957277
 H         3.584462         1.430624        -2.053707
 H         4.236918        -1.626757         0.203491
