19
Iteration:  1113
 C        -0.112492        -0.180694        -0.055713
 C         1.460003         0.099468         0.023375
 C         1.946966         0.605407         1.352138
 C         3.488484         0.407735         1.230046
 C         4.014209         0.623203        -0.197609
 C         3.141300         1.346791        -1.203167
 O         1.737467         1.039728        -0.989022
 C         3.631145        -0.747178         0.360517
 O         2.325155        -1.123673        -0.136458
 H        -0.438645        -0.880448         0.750765
 H        -0.602614         0.869746         0.040219
 H        -0.376353        -0.599747        -1.029768
 H         1.616657         1.582130         1.575207
 H         1.593352        -0.124802         2.139142
 H         4.049557         0.699989         2.114897
 H         5.086716         0.698415        -0.260912
 H         3.356930         2.409746        -1.131209
 H         3.324532         1.047541        -2.272829
 H         4.360959        -1.591979         0.515483
