19
Iteration:  4127charge 0 multiplicity 1
 C        -0.018423        -0.286878        -0.151882
 C         1.418768         0.129714         0.027574
 C         1.937752         0.564474         1.411896
 C         3.448501         0.424409         1.300832
 C         4.009264         0.673294        -0.071060
 C         3.270232         1.223916        -1.204236
 O         1.725121         1.205365        -1.020808
 C         3.573772        -0.761870         0.314687
 O         2.231030        -1.057828        -0.185759
 H        -0.131608        -1.270810         0.472132
 H        -0.827580         0.437908         0.065327
 H        -0.103208        -0.433069        -1.204777
 H         1.673224         1.482325         1.930740
 H         1.793379        -0.251083         2.179508
 H         4.152460         0.421103         2.155642
 H         5.154659         0.982542        -0.194947
 H         3.379448         2.353396        -1.370252
 H         3.607002         0.679433        -2.105169
 H         4.126258        -1.729222         0.391122
