19
Iteration:  2673
 C        -0.027420        -0.218791        -0.088458
 C         1.441620         0.087164        -0.037015
 C         2.055786         0.784313         1.263415
 C         3.455018         0.229537         1.319064
 C         4.068204         0.581086        -0.178370
 C         3.059170         1.554783        -0.908354
 O         1.750888         0.935896        -1.122332
 C         3.534420        -0.768231         0.214722
 O         2.281415        -1.196003        -0.116686
 H        -0.357993        -0.558505         0.949595
 H        -0.443999         0.790751        -0.219344
 H        -0.283253        -0.920151        -0.824075
 H         1.927502         1.933440         1.236729
 H         1.498132         0.592264         2.214927
 H         4.099488         0.169363         2.227922
 H         5.099013         0.853434        -0.332907
 H         3.040594         2.548124        -0.312914
 H         3.330535         1.896249        -1.907595
 H         4.337588        -1.531654         0.312180
