19
Iteration:   723
 C         0.014221        -0.293977        -0.017883
 C         1.409018         0.104793         0.103625
 C         1.924397         0.717045         1.393867
 C         3.392093         0.445438         1.257507
 C         3.968530         0.545690        -0.177095
 C         3.132041         1.152280        -1.313363
 O         1.795583         1.149813        -0.906601
 C         3.591950        -0.697790         0.344230
 O         2.357806        -1.035785        -0.244859
 H        -0.147185        -1.109384         0.603052
 H        -0.679812         0.521995         0.315356
 H        -0.221395        -0.448431        -1.083929
 H         1.420268         1.743226         1.441613
 H         1.618475         0.183401         2.279331
 H         4.012125         0.576077         2.132082
 H         5.063939         0.613453        -0.355594
 H         3.622624         2.121016        -1.454545
 H         3.297880         0.581396        -2.332334
 H         4.180260        -1.654819         0.339568
