19
Iteration:  3163charge 0 multiplicity 1
 C        -0.060921        -0.345245        -0.135277
 C         1.384726         0.047382         0.011405
 C         1.956916         0.599993         1.387374
 C         3.440883         0.460777         1.271150
 C         4.036757         0.585050        -0.106719
 C         3.181294         1.211219        -1.209788
 O         1.771724         1.275750        -0.746335
 C         3.581315        -0.796815         0.344484
 O         2.337486        -0.995919        -0.347864
 H        -0.185835        -1.136037         0.621327
 H        -0.877084         0.479054        -0.214087
 H        -0.046502        -0.979204        -1.182841
 H         1.504855         1.712577         1.293144
 H         1.550729         0.207181         2.342026
 H         3.985242         0.513851         2.172238
 H         5.051810         0.974730        -0.400093
 H         3.556899         2.198587        -1.358664
 H         3.126938         0.739945        -2.244029
 H         4.144193        -1.698911         0.283380
