19
Iteration:  4221
 C         0.048321        -0.324182        -0.081256
 C         1.538679         0.099205        -0.038899
 C         1.971400         0.618573         1.437078
 C         3.383511         0.395855         1.240702
 C         3.984726         0.645056        -0.146130
 C         3.229362         1.509811        -1.105503
 O         1.811386         1.042343        -1.050282
 C         3.467165        -0.833959         0.279666
 O         2.165607        -1.077660        -0.164510
 H        -0.091136        -0.990252         0.869960
 H        -0.647296         0.483275        -0.334051
 H        -0.018681        -1.064357        -0.937771
 H         1.621269         1.714328         1.430489
 H         1.535455         0.096772         2.293557
 H         4.096030         0.489338         2.095006
 H         5.163134         0.808594        -0.132122
 H         3.467516         2.577404        -0.680083
 H         3.500913         1.448903        -2.205302
 H         4.065016        -1.696567         0.552493
