19
Iteration:  2336charge 0 multiplicity 1
 C         0.069903        -0.343477        -0.087926
 C         1.431829         0.219664         0.091118
 C         1.983119         0.731199         1.456104
 C         3.517408         0.348022         1.323330
 C         3.948348         0.621375        -0.123946
 C         3.137111         1.242686        -1.249859
 O         1.734514         1.112682        -0.999421
 C         3.512018        -0.773553         0.214906
 O         2.233736        -1.057733        -0.166565
 H         0.062265        -1.280086         0.421327
 H        -0.740635         0.376714         0.100785
 H         0.043234        -0.665674        -1.227699
 H         1.824309         1.804798         1.657784
 H         1.576561         0.150559         2.256450
 H         4.328440         0.501519         1.966278
 H         4.997845         0.845272        -0.307979
 H         3.535517         2.293405        -1.358967
 H         3.390705         0.838806        -2.191608
 H         4.091934        -1.662764         0.407441
