19
Iteration:  2657
 C        -0.044518        -0.139915        -0.080861
 C         1.504179         0.092624         0.026055
 C         2.020358         0.635780         1.305379
 C         3.560260         0.335798         1.214822
 C         3.970950         0.690966        -0.102344
 C         3.075047         1.534412        -0.907176
 O         1.838240         0.871859        -1.162857
 C         3.573786        -0.786368         0.217624
 O         2.152926        -1.147674        -0.100998
 H        -0.446625        -0.460069         0.865545
 H        -0.711982         0.630412        -0.487529
 H        -0.115194        -1.074590        -0.750488
 H         1.898090         1.673384         1.505467
 H         1.589782         0.072564         2.141775
 H         4.193260         0.374814         2.096336
 H         5.046329         0.692967        -0.351605
 H         2.797522         2.532659        -0.613605
 H         3.579238         1.881660        -1.830421
 H         4.197134        -1.652863         0.108770
