19
Iteration:  3901
 C        -0.041516        -0.162925        -0.148567
 C         1.432389         0.099486        -0.018278
 C         1.956775         0.550222         1.387728
 C         3.488307         0.388897         1.243639
 C         3.985923         0.682858        -0.085109
 C         3.178742         1.397682        -1.053732
 O         1.808966         1.014128        -1.071689
 C         3.567255        -0.756853         0.207389
 O         2.230867        -1.132711        -0.074573
 H        -0.402210        -0.934196         0.674806
 H        -0.596977         0.765677        -0.096291
 H        -0.153807        -0.741038        -0.987451
 H         1.744849         1.525727         1.685910
 H         1.489394        -0.226164         2.036320
 H         4.148746         0.425762         2.105408
 H         5.087797         0.902238        -0.127397
 H         3.273174         2.515324        -0.907641
 H         3.395109         1.343245        -2.141767
 H         4.367487        -1.448046         0.249132
