19
Iteration:  2363
 C        -0.024969        -0.231196        -0.075420
 C         1.427168         0.099736         0.037286
 C         1.941234         0.647390         1.363064
 C         3.460073         0.362608         1.311567
 C         4.041549         0.651428        -0.106065
 C         3.043747         1.091924        -1.254526
 O         1.715167         1.207819        -0.855322
 C         3.596012        -0.719341         0.282297
 O         2.396401        -1.029106        -0.274653
 H        -0.452699        -0.793270         0.828875
 H        -0.508359         0.717102        -0.391088
 H        -0.119215        -0.937531        -0.851321
 H         1.733193         1.721124         1.444954
 H         1.593332         0.114707         2.314427
 H         4.175677         0.373499         2.199645
 H         5.045484         1.036904        -0.285436
 H         3.405049         2.032059        -1.624681
 H         3.116175         0.323975        -2.113408
 H         4.216033        -1.642213         0.411051
