19
Iteration:  4908
 C         0.026709        -0.255352        -0.136592
 C         1.493539         0.138352         0.040582
 C         1.986589         0.716269         1.450267
 C         3.509818         0.230375         1.291447
 C         3.982722         0.614391        -0.124823
 C         3.100307         1.500585        -1.030739
 O         1.776483         0.991427        -1.056941
 C         3.535155        -0.724003         0.158118
 O         2.176628        -1.130833        -0.169708
 H        -0.005042        -1.048635         0.597683
 H        -0.599434         0.574277         0.151648
 H        -0.054253        -0.797714        -1.141440
 H         1.861940         1.801891         1.431179
 H         1.558548         0.189524         2.257837
 H         4.258515         0.165720         2.063972
 H         4.961889         0.831495        -0.135294
 H         3.159720         2.570541        -0.763052
 H         3.521058         1.479530        -2.034908
 H         4.269236        -1.560777        -0.033197
