19
Iteration:  1594
 C         0.008812        -0.221261        -0.146908
 C         1.479756         0.092103         0.121151
 C         1.926660         0.642869         1.400911
 C         3.549902         0.398737         1.288507
 C         4.012843         0.725831        -0.160975
 C         3.043619         1.081842        -1.265715
 O         1.679438         1.133433        -0.846484
 C         3.615474        -0.716803         0.292007
 O         2.308753        -1.042597        -0.237376
 H        -0.439920        -1.065159         0.312399
 H        -0.587350         0.711433         0.047745
 H         0.123108        -0.500854        -1.200829
 H         1.746308         1.677772         1.449895
 H         1.408317         0.165260         2.243348
 H         4.179863         0.516153         2.195898
 H         5.067841         0.849222        -0.154394
 H         3.313716         2.049269        -1.680992
 H         3.258942         0.323933        -2.071621
 H         4.277982        -1.586512         0.407816
